12
[CH]COCOO
C -1.9829 1.4966 0.0586
C -1.3319 0.1470 -0.1901
O 0.0034 0.2776 0.1789
C 0.7216 -0.9034 -0.0022
O 2.0401 -0.6119 0.4115
O 2.4352 0.3794 -0.3921
H -2.1135 1.6394 1.1481
H -1.8200 -0.6720 0.3599
H -1.3767 -0.0597 -1.2975
H 0.2683 -1.6817 0.6487
H 0.7866 -1.2117 -1.0636
H 2.3697 1.2006 0.1398
