12
C[C@@H](C=O)OO
C -1.0976 -0.8035 0.3046
C 0.0270 0.0637 -0.2393
C -0.2459 1.4793 0.1062
O -1.2541 1.9949 -0.3385
O 1.2025 -0.3967 0.3306
O 2.0615 -0.8564 -0.5397
H -1.9777 -0.1511 0.4856
H -1.3911 -1.5270 -0.4686
H -0.8215 -1.2857 1.2666
H 0.1218 -0.0832 -1.3380
H 0.4190 2.0447 0.7301
H 2.9561 -0.4789 -0.2996
