12
CCOC(=O)O
C -1.3929 -0.0971 0.6962
C -0.8536 -0.3833 -0.6649
O 0.5306 -0.6350 -0.6931
C 1.5012 0.2481 -0.2837
O 1.1175 1.3677 0.1493
O 2.8562 0.0107 -0.3077
H -2.4565 -0.4170 0.7168
H -0.8777 -0.6397 1.5133
H -1.4247 1.0120 0.9002
H -1.1528 0.4347 -1.3463
H -1.3592 -1.3041 -1.0471
H 3.5119 0.4028 0.3669
