12

O 2.647764415848643 0.5495965373340225 0.08575454973165093
O 1.6941603448897222 -0.09893369022847298 -0.5490704111210942
C 0.4903559148210217 0.2385991349165679 0.05867522371763745
C -0.6877092849250155 -0.4473502988958825 -0.5850843024216196
C -1.9116759367250047 -0.03209082331995652 0.12070645741565703
O -3.0052293051734114 -0.46539957980881586 -0.22877604895956902
H 3.2155468938675815 -0.1093377269051428 0.5956912525765344
H 0.46021632074066776 0.010251888900850575 1.1305722159520815
H 0.30577622449214276 1.3412844323438355 -0.04679272130600362
H -0.5593766830658614 -1.5450904017777713 -0.6322134567036943
H -0.7688167290392084 -0.10225818243281039 -1.6446043568114874
H -1.8810121757312743 0.6607287098735626 0.9599186168651465
