12
O1CCOOC1
O 0.6160 0.9091 -0.5849
C -0.6351 0.8321 -0.0023
C -1.1211 -0.5925 -0.0998
O -0.0859 -1.5196 -0.0275
O 0.8525 -0.9842 0.7263
C 1.5037 0.0143 0.0292
H -1.3265 1.4702 -0.6082
H -0.6688 1.2391 1.0213
H -1.8400 -0.8127 0.7011
H -1.5864 -0.7147 -1.0982
H 2.1354 -0.3898 -0.8052
H 2.1562 0.5487 0.7482
