12
O=CCC(O)O
O -2.0585 0.5617 -0.5887
C -1.5988 -0.3245 0.1202
C -0.1653 -0.5859 0.3005
C 0.7121 0.3571 -0.4840
O 0.5557 1.6720 -0.1653
O 2.0411 -0.0201 -0.3293
H -2.3058 -0.9426 0.6373
H 0.0769 -0.6354 1.3621
H 0.0384 -1.6081 -0.1193
H 0.4677 0.1931 -1.5646
H 0.0503 1.8614 0.6471
H 2.1862 -0.5288 0.5094
