12
O[CH][CH]COO
O -2.8249 -0.0322 0.5166
C -1.6744 0.3266 -0.1614
C -0.5899 -0.7125 -0.0581
C 0.7390 -0.0279 -0.1963
O 1.8125 -0.9004 -0.1155
O 2.9080 -0.1618 -0.2505
H -3.3850 0.7356 0.7374
H -1.3357 1.3502 0.0239
H -0.7638 -1.4649 -0.8428
H 0.8403 0.6773 0.6744
H 0.7513 0.4990 -1.1642
H 3.5225 -0.2890 0.5189
