12
OC[C@H]1COO1
O -1.3011 0.9587 0.0825
C -1.0611 -0.3797 -0.2404
C 0.3688 -0.6798 0.0654
C 1.3405 0.4429 -0.0415
O 0.6908 0.8379 1.1238
O 0.6081 -0.4567 1.4398
H -2.0287 1.3002 -0.5237
H -1.3403 -0.5691 -1.2920
H -1.6934 -1.0429 0.3916
H 0.7864 -1.6197 -0.3260
H 2.3630 0.0952 0.2186
H 1.2671 1.1128 -0.8980
