12
OCCC(=O)O
O -1.0403 1.0510 0.9634
C -0.9639 -0.3163 0.7171
C -0.3211 -0.4538 -0.6741
C 1.0048 0.1896 -0.5471
O 1.2100 1.2737 -1.0980
O 1.9991 -0.4202 0.1912
H -1.2320 1.5037 0.1083
H -0.2575 -0.8245 1.4048
H -1.9828 -0.7279 0.7335
H -0.9478 0.1381 -1.4128
H -0.2543 -1.5055 -0.9897
H 2.7858 0.0921 0.6033
