12
OO[C@H]1CCO1
O 2.6181 -0.3655 0.0452
O 1.5267 0.2219 0.4618
C 0.4542 0.0581 -0.3992
C -0.7992 -0.3561 0.3337
C -1.4238 0.6654 -0.5933
O -0.1814 1.2755 -0.7280
H 2.9300 -0.9628 0.7709
H 0.7329 -0.5389 -1.2724
H -1.1206 -1.4012 0.1293
H -0.8209 -0.0676 1.3882
H -2.1468 1.3108 -0.0822
H -1.7691 0.1604 -1.5114
