16

C -1.629470420790715 0.7851296399747583 -0.13582800678189494
C -0.4330198040500891 0.07067439228999504 0.4117632400035586
C -0.5622839567163267 -1.4081241233879294 0.5937609116406187
O 0.6813356809778723 -1.5440351489606696 -0.06005538514328131
C 0.6639264230049882 -0.2380871903620608 -0.5805461124102309
C 1.9447481998789529 0.5161680074337435 -0.3075403939656461
H -1.4963790498497826 1.8750260692354719 0.08580824700080539
H -2.557797743522672 0.47417075343003345 0.4012534711780241
H -1.7810263419004424 0.6654028995115203 -1.2153289924060433
H -0.051550097204493606 0.5464271777963673 1.342563949106372
H -1.4035651254486274 -1.9013371362450215 0.08696721159582384
H -0.427331626860461 -1.7822747477259506 1.6374631238383852
H 0.35286706172986076 -0.2583821938924723 -1.6411891521679751
H 2.848878330151708 -0.07997003948086966 -0.46644862297539685
H 1.9359129947269298 0.8447409038126469 0.7615812380318786
H 1.9147554758732925 1.434470736570438 -0.9142247265449907
