11

C -1.869619439613167 -0.10358465655140081 -0.4992399355685669
C -0.8202581421039086 0.25763885453592555 0.21436931704981807
C 0.5513175930297071 -0.2529211965420519 -0.02411069478677617
O 1.0286254901098573 -0.909764199361991 1.110134867238219
O 2.2458523062915594 -1.3389941977396438 0.8387434284653947
H -1.73148612002215 -0.8090286748924447 -1.3027321825904992
H -2.8464368522464576 0.2949008851707844 -0.28783859781129134
H -0.9557016960164587 0.9656589572235763 1.021646035443672
H 1.1951342081924796 0.5949331330601888 -0.3260505926560506
H 0.5608822135997074 -0.9741286180071924 -0.8652804919364214
H 2.641690438778852 -0.7643342570984848 0.12035884715250068
