18

C 1.7294916818353334 -0.2464703355865565 -1.631575186555207
C 0.5967461850100765 -0.5773074865859343 -0.7642856891110562
C -0.04430315269720144 0.48924398554709747 0.005365000459671406
C 0.852189923191309 1.1985533583103165 0.9640340983542369
C -1.2158358423106155 -0.09362171815051865 0.7819501895420782
O -2.1493059519484072 -0.6548987052717177 -0.10689051459105543
O -3.122453555649301 -1.1317217737555367 0.6487879747283483
H 1.606160370817252 0.6882289686656463 -2.193282733509908
H 1.858638344436665 -1.0592015515757407 -2.3912077351388312
H 2.6791578061360037 -0.2597469307276251 -1.0344522477283653
H 0.3891721339440917 -1.5950654977682415 -0.5292879788215269
H -0.4638919207068814 1.251698645695783 -0.7076727696393404
H 0.5846798160981669 0.9544694285511194 2.0149719455879085
H 0.7926785999488604 2.3043727556953555 0.8841735326429218
H 1.9170750598774933 0.9149857048723269 0.8471536334602787
H -1.6973997440938942 0.6987312069878523 1.3812276686838227
H -0.8737638993558973 -0.8706019355473397 1.4796317719389596
H -3.439035854533141 -2.011648119356345 0.3513590396970811
