17

C -1.7495476087303106 -0.9704760686235673 -0.5628414618763672
C -1.1529383565871887 0.2425138429310608 0.05556425778074058
C -1.8863854770594874 1.3466947492137782 0.08834197211986611
C 0.21649886024173792 0.1564778417441385 0.598075279921097
C 1.22247564437027 -0.2208966093404301 -0.4697464576879598
C 2.5828773022084284 -0.2916360717605643 0.13742414825933333
H -2.770516830414372 -1.1360857046880626 -0.1846654400335326
H -1.1493556932205 -1.8868940339489957 -0.3438979873587021
H -1.7253185376093163 -0.8305504952467478 -1.6622878851570044
H -2.884736420697378 1.387448009593372 -0.31382391660669573
H -1.4153654293403817 2.22740390056966 0.5530520682049791
H 0.4949849996107881 1.1360164284111105 1.0602591002527342
H 0.2944564684679707 -0.58973712628355 1.4253040560939056
H 1.1402236846731473 0.39329963989719174 -1.367085161709663
H 2.933779264220234 -1.3377160202439904 0.08204890202265877
H 3.3005923314662065 0.41174223644421754 -0.3212967216451564
H 2.548275798400149 -0.037604518668593136 1.2255752474197852
