20

C -0.6218390520976463 -1.8002271370526348 0.15329410071714944
C -0.011272167279873502 -0.5320126471035256 -0.33781444845890524
C 1.3328482769613876 -0.3506840359574067 0.28928614407439196
O 1.9792262858413154 0.8156384467097475 -0.11530368320264092
O 3.1476855255898593 0.8306932762014524 0.5230346623910747
C -0.9003740521145398 0.6690314699125441 -0.22231762812033318
C -1.3281533773866632 0.9838513949170234 1.1788810873082018
O -2.040903203503379 0.5733517176260052 -1.0027742423910706
O -2.025624552991072 1.5388511524661763 -1.8892600871127812
H 0.22213745338565286 -2.5277155584628805 0.3407475775093794
H -1.2479436597664921 -2.3028689993084757 -0.628217388515168
H -1.1583759977305568 -1.718977640678574 1.1065311318346653
H 0.17215355593184364 -0.6706315110715364 -1.4458291159612167
H 1.9822276059637665 -1.1948890710185245 -0.08840253268151825
H 1.3262098794790542 -0.3947167098039053 1.3877683119470792
H 3.8616298761579304 1.2106068664345895 -0.04142302527663964
H -0.317004814347005 1.5369982784539264 -0.5847307533148802
H -1.9141997551014684 0.18616128939647644 1.6617930497688018
H -1.987826604090238 1.8753640379619032 1.1284780326930741
H -0.47060122290190987 1.2721753803776141 1.828613619117534
