18

C -1.6969863475234293 -1.172398128984418 -0.13060704943350304
C -1.3190168559533282 0.12343460253378026 0.5457580087450061
C -0.061960759003915435 0.7026482708081255 -0.05214603571738862
C 0.31540868792038085 1.9807111002764237 0.6112503835681529
C 0.9961346284789955 -0.3421064636650271 -0.04069310371450915
O 2.2086258860867 0.07735583263012827 -0.5699799629070934
O 3.0292498741578213 -0.9698105888224631 -0.4822161275585287
H -2.736011448983893 -1.4228820084136369 0.21522014236257425
H -1.772755852209191 -1.0247425619959685 -1.2412791875479374
H -1.0592738831965756 -2.018075242366585 0.14853093548620663
H -2.179521053700476 0.8150196890552983 0.4585583786233215
H -1.2108833219806223 -0.10324071085589948 1.6355670587129496
H -0.18220984225720452 2.1016204044058697 1.6067114847096382
H -0.06922479297293613 2.8428333371395413 -0.008270810030273988
H 1.3989981616897804 2.14483342066847 0.7207650500710248
H 1.1710612336884874 -0.7268418070104491 0.978529367499064
H 0.6269898607952658 -1.201624025192601 -0.6584242665119534
H 2.5413758249642493 -1.8067351202106186 -0.3094421989454919
