18

C 1.838559734328827 0.8847788703146899 0.687434859439552
C 1.0972854839564112 -0.1390092405620475 -0.10683420183624573
C -0.20160892700992794 -0.5675168296619257 0.48615441876891796
C -0.8162507114990702 -1.6020887182680357 -0.4423587993846501
C -1.2019122606712025 0.580231758479098 0.5729217474863821
O -1.4413456216866787 1.0675268503425503 -0.73232277583054
O -2.3000432043476007 2.0602754409458655 -0.702940208096975
H 2.2142165720508653 1.6614881749723711 -0.010183334677306378
H 2.7538288672966456 0.4759462135779322 1.1919322344977021
H 1.2435372515146585 1.397227380243913 1.454338880428008
H 0.9163864029625786 0.21668028461672412 -1.1513497991629773
H 1.748054920915569 -1.046696575033882 -0.15733087190137487
H -0.08752247974970599 -1.050553025772134 1.4719004694783229
H -1.7897192355400229 -1.9028212334194 -0.007549420665133764
H -0.9053163658450176 -1.134716257281335 -1.434907340852211
H -0.10246115474961298 -2.46535519108131 -0.44319833710959
H -2.1818072144536336 0.22370935823049246 0.9486766824982408
H -0.7838820574731358 1.34089273935645 1.2345428669516212
