20

C -0.026604902177726868 -1.4717942215334086 0.1565699886086168
C 0.19268638460282755 0.025809718557036017 0.13424856273890728
C -0.7117114994771782 0.7007743992167264 -0.8711303074023455
C -2.1627865613011403 0.48015240796928965 -0.5797612615855732
O -2.4483978937535404 1.0006471223678577 0.688407135649192
O -3.717612680192039 0.8103441942794413 0.949182432606645
C 1.6459189146071846 0.25404070955250524 -0.21797974116944147
O 2.4748788378896767 -0.3393795023149967 0.7279585385517217
O 3.7186114170742783 -0.08860877485231743 0.338990361387903
H 0.6713477936146416 -1.8766935837779335 0.9370906418796325
H -1.0758152493904352 -1.731617714903957 0.400208616260151
H 0.25349902170160277 -1.8856304817953944 -0.8509994971794033
H 0.03201080789681689 0.42009799296081457 1.1381596936021985
H -0.45099078034243506 0.3879993132542526 -1.902368365053447
H -0.5336547218638916 1.7984829935309958 -0.7861988331969315
H -2.745697652789208 1.078395853089007 -1.3103504139814213
H -2.4909582979774183 -0.5666411556222345 -0.6845851341845376
H 1.8642564299320663 -0.1640474525476323 -1.2391458560472028
H 1.803214856185875 1.3543549809408255 -0.20999293032658434
H 3.7078057757601557 -0.18668679837083488 -0.6474276290597525
