14

C 1.9393631664662623 0.24083783280612261 0.19138377310067087
C 0.6318766017128775 0.7732670937533003 -0.19622653646820162
C -0.5121061817284749 -0.10373206717561391 -0.11681690664701042
C -0.4498494715128718 -1.3881459685509998 -0.42911232539441596
C -1.8339920649276982 0.45559699642639917 0.3384850683906707
H 1.807351314602638 -0.7341662650934249 0.7072186146665231
H 2.6763652716697655 0.13853816885864553 -0.6579945036517714
H 2.4380146822049946 0.9815929851487846 0.8835132750218418
H 0.5879841941184686 1.6135107108355995 -0.8626476530481766
H -1.3193784351337055 -2.0488332470208377 -0.3673633424942376
H 0.4947530548494411 -1.8153690515791416 -0.7609590641101325
H -1.9523697674161078 1.4772427072902479 -0.10472140136189935
H -2.6496910314369226 -0.15599125667009392 -0.06566539821696586
H -1.858321333468661 0.5656513609710053 1.4409064002131033
