16

C 2.053760332896004 0.38968384622521884 0.1104235421979088
C 0.9059206627600795 -0.33697881071035407 -0.5298767324216968
C -0.4751993397564559 -0.08743156067232977 -0.1807180168240634
C -0.9515182613635457 1.057704259710489 0.6443102714505509
C -1.4499326601160412 -1.2530029136794585 -0.27852315967045504
O 0.0948461226888386 0.35059621813861025 -1.427923372729303
H 1.6691237372833014 0.8203684607719887 1.0706480293886487
H 2.496643300745495 1.1749437531687237 -0.5464199127113164
H 2.85748167797608 -0.32300605620617817 0.42240476445003955
H 1.1687583696461763 -1.3595648107075764 -0.8812539136790372
H -1.6277702671677088 1.676729155551557 -0.003997211219736117
H -1.6004797780061806 0.7028909429974578 1.4821737181930268
H -0.1629372268900532 1.7266237352564056 1.0078228356133982
H -0.984776076779468 -2.1042178032323164 -0.8277529436036885
H -1.6470580202682013 -1.5859514172505484 0.7433454164972917
H -2.3468625736482434 -0.8493869993617038 -0.8046633149315334
