16

C -1.523889455497172 -0.8386902047708239 -0.19250991677573825
C -0.21656056300195936 -0.12619060660097184 -0.14704692479981643
C -0.38987444338710914 1.3800762248405816 -0.2547471211385936
C 0.73765516936944 -0.5120142185888127 0.9374618425146758
C 1.7126324963698494 -0.20393115616819255 -0.17319554466958928
O 0.7175610037272937 -0.6151541804055691 -1.0803879139573545
H -1.501874894259107 -1.5939399813211206 -1.022660640920198
H -2.3451237986709015 -0.12846502788099914 -0.4894942732161492
H -1.8346396011407737 -1.3078651165357436 0.7452209160043091
H -1.4624970896106906 1.6239142788841199 -0.4603439951065185
H -0.15255090934921406 1.8162898800724172 0.7285647253427403
H 0.23512522754608053 1.8104692880706028 -1.0706702875886567
H 0.8101248474404524 0.23306501398425758 1.7700150732238884
H 0.7181043943067751 -1.5610700727415272 1.248379332846026
H 1.8971631112342693 0.8698000760926402 -0.3096231115145579
H 2.5986445049227562 -0.8462941969308636 -0.2289621602444751
