20

C 1.8840057476871568 -0.33558399670843725 -0.3772872780252756
C 0.9231268844904258 0.756551754976199 -0.05947358474990715
C -0.39516313256066604 0.2675911230747063 0.4912196846614424
C -0.21559650005310552 -0.5060675273032679 1.7635608776008367
C -1.1528834333262976 -0.5658218137937006 -0.4985319609325799
O -0.47248442031601384 -1.7188773817779686 -0.8603281545185225
O -1.242047379182997 -2.362861782200943 -1.7327260916345004
O -1.171732758396999 1.3918583447646613 0.7779242335398654
O -1.3863140682269721 2.1165838135944814 -0.3022667873734318
H 2.9562936165684532 -0.0387750821845067 -0.2163991658136961
H 1.6932054800002807 -1.2708590169014415 0.1810434771780122
H 1.8295554789969826 -0.5950018745893784 -1.4653693679689226
H 1.3916724695635794 1.3759817516479265 0.7587523866280932
H 0.7341681678361517 1.3926917046806173 -0.9465728538620504
H 0.625790523933591 -0.05421093574043895 2.356062532577718
H -0.0019816294095320224 -1.5726154429587909 1.533573121634448
H -1.0965527272409579 -0.4736728115112071 2.418780707955939
H -1.4792979125366175 0.0178437906483974 -1.3918216561704262
H -2.089418258295598 -0.903265965043398 0.013436720841862032
H -1.3343461495308888 3.07851134732648 -0.03263275189272795
