18

C 1.7784444592272717 0.8313012176139234 0.2480475274872193
C 0.3044006167750966 1.1109492958771694 0.14091956468398367
C -0.5152932627683857 -0.14066249975062733 -0.03164707871771481
C -0.2665035821292808 -1.015737086666005 1.1832723620701888
C -0.19961575912225235 -0.8837630902782694 -1.294128656331812
O -1.864414845663917 0.20116391081695265 -0.054722914910983654
O -2.174311954479109 1.0107795433808373 -1.0162903876976246
H 1.9817930365876137 -0.2567856082824812 0.23946231831822012
H 2.2058649593152952 1.1987731766868714 1.226566430566584
H 2.2745734517977856 1.3592660182107317 -0.6046658380522199
H -0.09240914885837029 1.681110961252453 0.9951657140560477
H -1.212084063731832 -1.535558594108484 1.4775918789701419
H 0.5297811607578133 -1.7449397676543323 0.9995154026947374
H 0.03313875519351996 -0.4214527346268162 2.0689726133737647
H 0.4324328193042724 -0.26870906917844306 -1.9920782885566195
H 0.30064447010433415 -1.8634986840658239 -1.0784527749126407
H -1.110641678998904 -1.1493216392460508 -1.876695111664158
H -2.405799433310947 1.8870846500184228 -0.6308327613771255
