15

C 1.8997072572752727 0.5407252190543456 -0.20912529173988356
C 0.8535967182625547 -0.49634655332132 -0.3022146711595141
C -0.40830343283248116 -0.2615060715864325 0.010087493195852755
C -0.8142992295427905 1.0901551591555776 0.47523873727227955
C -1.4249395480477047 -1.3462352747756263 -0.1023565702823086
H 2.645409048370152 0.3381410337170215 0.6017596195974085
H 1.4860978216761658 1.5526375352938764 -0.03799794335209192
H 2.4523768219010593 0.5649608189642525 -1.1787572067690273
H 1.1205805211995759 -1.4867206595549787 -0.6371400657061488
H -1.8330261540683426 1.0449165033299794 0.9029621478054145
H -0.8465236933114924 1.8365184187533452 -0.3455264991870683
H -0.1019502827772953 1.457115831179886 1.239414252668279
H -1.6228339105067535 -1.7419480886554346 0.9159333741097573
H -1.058296055528331 -2.15866794256977 -0.7720860550224379
H -2.347595882069567 -0.9337459289847069 -0.5601913214305222
