20

C 1.8214395526491614 0.6970212005297975 -0.2817743072624607
C 0.9307667070939317 -0.4188286397256296 0.16558732520260888
C -0.5346846545743053 0.01593603456441262 0.2671998379855685
C -1.275670723723595 -1.1775958978782457 0.8534571665656274
C -1.1234601343232142 0.2910161118910663 -1.0794201071232468
O -0.6802702224254 1.0990489457599049 1.1336428527365832
O -0.004483488763810689 2.136385708197105 0.7527264560628402
O 0.9493082569300852 -1.5029971833358362 -0.7251220861912638
O 1.3537604055900747 -2.60667572993024 -0.17104405561739883
H 2.7259756305377594 0.2445262029220032 -0.7826497543393823
H 1.2795281009305992 1.2806291993654373 -1.047489212261472
H 2.1843748652510784 1.3098582122671392 0.5627885571729117
H 1.2817892113858227 -0.8236026827951471 1.1361638444411586
H -1.0725495467413804 -2.0312851282493365 0.14302937680389377
H -0.9124485260344434 -1.4299338027688273 1.8548890828973417
H -2.3686774892276183 -1.0011151100672337 0.7958670058428932
H -0.8851093820542397 -0.5621091390687677 -1.7438024931662017
H -0.775699469965967 1.2578659195139799 -1.513817415714164
H -2.226660916150174 0.330639953398624 -0.9748598194758782
H -0.6672281763843007 2.8912158254097378 0.65462774544005
