20

C -0.5657702740842929 -1.6735084472131598 0.03344657374589326
C -0.6218509442115276 -0.18377081596817238 -0.031059193636576953
C -1.6186094528521524 0.19926962271457346 -1.105917601938713
C 0.6867833232009869 0.46294288995045385 -0.3400917928378132
C 1.747306758060262 0.145962517642205 0.69086242806246
O 2.9545575394919066 0.7625037589083811 0.3753123765202523
O 3.8915648804069507 0.5164500336423087 1.234229215635939
O -1.0941729355406307 0.34954724819041233 1.1845714003171346
O -1.1346309760232185 1.6490594419181726 1.1050881769012348
H -1.3648463249544733 -2.1596766366882973 -0.5886984198844133
H 0.3892419995810743 -2.097891297212323 -0.3418413496169398
H -0.7688394048021171 -1.9947328612208985 1.0719802222869965
H -2.6514035583172615 -0.06734645973295356 -0.789404257583787
H -1.3613697905870037 -0.4060452750931626 -2.0016733538073055
H -1.5357661100655593 1.2629363188402947 -1.3957187696796711
H 1.0052513795581548 0.13838332081219906 -1.3498404386586262
H 0.5470259269211151 1.5630938475514522 -0.37350009955672775
H 1.4543350722131596 0.4845722844080751 1.697973832698633
H 1.8590014959951977 -0.9555377772917584 0.7147909270692618
H -1.817808603990524 2.0037882858421687 0.5107948036073232
