19

C 1.6641355058624872 -0.8351022462091139 -0.22922104328311402
C 0.9502521346146737 0.3872381040076692 0.343919368153275
C -0.5410780126457105 0.30274801544574237 0.13128218930097896
C -1.1126399645216016 -0.8935697973304868 0.8592337826116512
C -0.9277627766276184 0.21956517662459268 -1.3119599080785913
O -1.105803040374026 1.4444330411181026 0.6768894656998713
O 1.5065158611076175 1.503024061361085 -0.26389026753013434
O 2.0614591135685414 2.246936742500045 0.6502215591706932
H 1.658173052681875 -0.7207994392932021 -1.3231415434874714
H 2.705017582301395 -0.7821579844117148 0.17081014696666846
H 1.1240401608494441 -1.7267741822412204 0.11790992042182365
H 1.1323802814565962 0.4427590576626399 1.424272358332353
H -0.9023605184746346 -1.855235443628451 0.3133609680187256
H -2.226611028199363 -0.7362890227802948 0.8921675358529484
H -0.7159948387556435 -0.9384280006216613 1.9031399938633518
H -2.0225408886142766 0.4617299127756314 -1.3698824068592315
H -0.7788694656340881 -0.793088675127917 -1.6932373744516958
H -0.37766591765130547 0.9233246150739034 -1.9641808369878677
H -2.090647240944412 1.3496860650746696 0.6723060922858128
