14

C 2.7585555336527223 0.19962903168649698 0.27176777706256455
C 1.6090078611563519 0.5783037777828053 -0.23583317778019489
C 0.40976564872357485 -0.19146971214064315 0.022288227059452815
C -0.7781258834147111 0.14068582879762281 -0.46226103829079
C -2.024124600596526 -0.6128354974025092 -0.2253648323890217
O -2.9627155003684824 0.2186381455462631 0.4182695282623317
H 2.824948958739887 -0.7018603548596006 0.8958873810909976
H 3.690580917774597 0.7182438872855171 0.12499743260546274
H 1.6006695527113226 1.4666817978549387 -0.838404447561281
H 0.5006877921404663 -1.0846439148911662 0.6461757930771488
H -0.8289589176694202 1.022822409589286 -1.0699093999613507
H -2.476076010939549 -0.9455340557123081 -1.1880362659762733
H -1.8466476097998867 -1.4574967670145744 0.46948424951613427
H -2.47756774211059 0.6488354234775516 1.1709387732906948
