12

C 1.366681290950805 0.6821884136605738 0.18609162910309274
C 0.8031175221025184 -0.6677757271575829 -0.06376604143945279
C -0.4878599993137406 -0.9288948938173227 -0.06991221839241556
C -1.526768041486244 0.10754181235911045 0.1744318232235854
H 2.3820247592400197 0.6023420068656409 0.6225692810743617
H 1.4770905553373663 1.2129473158872626 -0.7739035098041996
H 0.7129188054956811 1.3053121921139959 0.8312867540103975
H 1.5124171592943372 -1.4631737258653221 -0.24818980919088784
H -0.8417425166685975 -1.9330680573579877 -0.25810139810906235
H -2.4636725958139647 -0.09534989678014306 -0.37691282024804224
H -1.164876062011184 1.1204119715136704 -0.09175727719096516
H -1.7693308771270368 0.05751858857810215 1.2588147869215518
