16

C -1.324359615262309 -0.6412191690574282 0.548890188376141
C -0.5023912854982276 -0.028440137804789437 -0.5703463553430881
C -0.5080043739347466 1.4651633169748202 -0.3509444129327381
C 0.8556384087945065 -0.6283029456011531 -0.5399846860441014
C 1.7671979664588646 -0.5556987471922995 0.5698370400354943
O 1.9269249524433794 0.32627250872972646 -0.4979149934590181
H -2.263666645508003 -0.07815952417957825 0.6252232158505228
H -1.4956368662774302 -1.7094815618355699 0.25983718671836686
H -0.7464887134433605 -0.5637986821549136 1.493074799082798
H -0.9884043995339471 -0.23119719116454757 -1.5226329158666738
H -1.5243096491464725 1.8213765498255998 -0.6281303292655006
H 0.20675757196676675 1.9980260300978572 -1.022853401000722
H -0.3575617503588829 1.7434463434778267 0.714249007529271
H 1.0245814507217827 -1.4458322432740003 -1.289339634788811
H 2.5462036574593188 -1.3372938939415566 0.6737995080449908
H 1.3835192911187653 -0.13486065290004676 1.5372357830631096
