14

C -0.9094190800425249 1.2124864029562545 -0.5171951819035443
C -0.08239332783925873 -0.038897915780688304 -0.28162758639762847
C -0.7999616563086633 -1.1725418317785388 0.3759886860465386
C 1.356469966362085 0.13248614792829697 -0.1855759051710903
O 2.0098575236487823 -0.6977269033150558 0.7551190951083331
O 0.797569108482963 -0.438217074328078 -1.3047359807058083
H -0.38822800856736384 2.1241455590223173 -0.16027344829328063
H -1.0869174613769224 1.23376936690317 -1.6262085665127206
H -1.8730516252755407 1.1441764863952628 0.027178968721089554
H -1.8629384672250764 -0.9556959372150444 0.587599712822206
H -0.35348563225664476 -1.4733019204971407 1.3576824339200375
H -0.7793167861324384 -2.0833167138847344 -0.2671169094260279
H 1.8354585795318197 1.112372093550446 -0.3122685886670306
H 2.1363568669987973 -0.0997377599564671 1.551433270458911
