13

C -0.3527359085756241 1.5252921722946822 0.15786281766323712
C -0.002029265811940476 0.1421900824132121 -0.21434220789095684
C 1.3637186249626494 -0.36347740541712237 0.0618296561040674
C -1.077323533109596 -0.8425634877102 0.131784168334752
O -1.69444770367868 -0.17916092235346806 -0.9429021391119008
O -0.4829666165735916 -0.15068796937205275 -1.508744707469222
H -0.7857743920177858 1.662147988665755 1.1538701407754277
H 0.3251728786917022 2.311199687335084 -0.17812795218023522
H 1.3419740312937625 -1.4780286126374256 -0.11830044135682506
H 1.6296292386198004 -0.15898089638726803 1.0980640626018552
H 2.122999267898644 0.11694574016732324 -0.5833228287731024
H -0.8478823721770675 -1.8875639113270597 -0.16594713997083121
H -1.5403342495222745 -0.6973124656714762 1.1082765712737268
