6

C 1.2593449577047582 0.017809210463697087 0.1614287973242613
C 0.040253100596889614 0.4838977550794147 -0.06565476818574438
O -1.027126615144359 -0.3167852296262264 -0.4259934724187901
H 1.539732209054461 -1.0051863166658408 0.0913029778681972
H -0.12457508115934111 1.547764313637727 0.037393434631270484
H -1.6876285710524144 -0.7274997328887733 0.20152303078080905
