7

C -0.8121201681974016 -0.2788308505794987 0.25598401236805773
C 0.04687139444959364 0.44398149975435525 -0.42009742623429003
O 1.3330380224336817 0.597246936336802 0.08908284821966814
O 1.9653898343447054 -0.5575606970559294 0.3987817667982353
H -1.8007971588925409 -0.3941189817980409 -0.13956547929429555
H -0.5274502023192199 -0.7375482727532781 1.1755263232211512
H -0.20493172181878305 0.9268303660956169 -1.3597120450785172
