9

C -1.3344887039161877 -0.6555573429963069 -0.38324339915774797
C -0.15746139237658302 0.2092666977409277 -0.07402793555510165
O 1.0549864672208524 -0.4860524517809386 -0.18709382328950447
O 2.0803748566806703 0.25765853633584374 0.07963475796943384
H -2.163751419285425 -0.37035133445779983 0.31813712288901574
H -1.7305080133742186 -0.4821174330546942 -1.4098211306998112
H -0.25843926412056273 0.7162282242471486 0.9099693789558198
H -0.09545148956819027 1.0200234604515206 -0.8577045167847195
H 2.604738958739621 -0.209098356485698 0.8016092622064155
