10

C -1.0180627109430933 -0.41662198076856866 -0.30259265098197413
C 0.07307080477589864 0.6133598178280628 -0.0012874131686001075
C 1.3203846450964658 -0.11772628927041419 0.29732371573551264
O 1.8550081625829868 0.042639701139427326 1.3646278099649438
O -0.33104263465946543 1.4269049979509727 1.0455155409594123
H -1.9651055861663205 -0.12349024133820188 0.21812169865266334
H -0.7257337642576519 -1.3966119540520519 0.12851287313653734
H -1.1694591938514618 -0.49920781155052835 -1.3983222310265453
H 0.22974564714963513 1.2489853433752711 -0.9153547788272302
H 1.7311946302729713 -0.7782315833139801 -0.43654456444473116
