11

C -0.8991405923336552 0.7872111521673884 0.13248134313572535
C -0.5541094038892189 -0.6396206561249318 -0.20026019716455243
C 0.8694466801141418 -0.8654643633853344 0.15290292803245478
C 1.7528557969993181 0.07970235050652552 0.01521738886140621
O 2.4228742715768585 1.131893685217053 0.17934444672828995
H -0.10965329552211954 1.2389833152087888 0.7893907089321544
H -1.867842648755236 0.8822478766048976 0.6787560927796085
H -0.8838696105923273 1.3825169287245862 -0.7998350236872936
H -1.228708361072371 -1.3537552247231368 0.2840652829590011
H -0.6574466921292561 -0.8078787660803326 -1.3022375812104001
H 1.1555938556038703 -1.835836298115496 0.5280022992548116
