16

C 1.9145733580879736 -0.34380298216448124 -0.5179648676455862
C 0.8364904133425654 0.47741494701939724 0.12514568941208595
C -0.5489534752850012 0.05124752567851526 -0.30922943384798374
C -0.7961462891727681 -1.3676908344885088 0.05271010728545222
O -1.7175442267315695 -1.6377207303490247 0.8014062846608481
C -1.6174776398819972 0.9005982039089078 0.28963735213863007
O -1.4377632405635266 2.2424044985635616 -0.10077869886293658
H 2.876679944413643 0.17424145565441204 -0.5850555277409271
H 2.098084387499381 -1.281154841344627 0.05950889892463041
H 1.5718937506012098 -0.6840324936853921 -1.5266340077083862
H 0.8722910455012537 0.432147440748712 1.2378016935703966
H 0.9445559975430188 1.555438213348756 -0.13108425223429962
H -0.5659810147275098 0.17967072927719763 -1.4249470201078687
H -0.18784753817093186 -2.1853695714470116 -0.32243470980772054
H -2.638609374222883 0.5942311759370881 -0.013392516620348228
H -1.604246098233095 0.8923772633424625 1.3920585752567378
