9

C 0.8810938480903834 0.12376303130003348 -0.05973242533805386
C -0.42848180690927107 -0.5977727741333165 -0.07742462834460272
C -1.4361170851690772 0.30193492633061947 0.5882877039177764
O -1.3484605133715823 1.489644876535214 0.2619776029898616
H 1.100444474148373 0.41624445679033095 0.9790847897617387
H 1.723830101889459 -0.44780950186442 -0.46585041480762807
H 0.7485889744156737 1.0706425402453676 -0.6295703791537175
H -0.8150415636705414 -0.8136856120203273 -1.0825800417844482
H -0.4258564294234155 -1.542961943183499 0.4858077927590723
