9

C -0.8520721251083854 -0.1797374367221235 -0.05063724117461181
C 0.456313837983744 0.4964864997565698 0.23564272129440095
O 1.4377624339340873 -0.15927415386927696 -0.5314575894350814
H -1.20501582805382 0.20710220111736363 -1.0419802296749527
H -0.7696013372250724 -1.2752471026037426 -0.17438630757727344
H -1.629298662551276 0.002558673247828484 0.704118980830007
H 0.4446519352239677 1.5480958184515954 -0.14447021477948377
H 0.7557121799659359 0.47893686436028404 1.2886817584660581
H 1.3615475658308194 -1.1189213637385027 -0.2855118779490653
