16

C 2.4849920810673054 0.42958060814998766 0.1162082410920919
C 1.2727519750415854 -0.40684104500636076 0.3067390410742769
C 0.009885616953896737 0.25613023688295106 -0.11570321968449902
C -1.2473814593100387 -0.5180363471858951 0.0442048709359079
C -2.4627100467123197 0.2390873744680948 -0.41052782068611604
O -3.5651821460487123 -0.6130768549482152 -0.20036344184523922
O -0.012915796434153587 1.3690780634533775 -0.5689437939293434
H 3.119885973023003 0.05672005562271313 -0.7246044750288707
H 3.13411406899361 0.2979624206294243 1.0310024897108272
H 2.302920126041576 1.5024200315266136 -0.005621772037176591
H 1.414948763614083 -1.3482317688291667 -0.27453118796288
H 1.1262130216482409 -0.727480104854409 1.3598925116534133
H -1.1335870232724046 -1.4688141167581306 -0.47593964866740013
H -1.37188617434281 -0.714714543440569 1.1388904492541307
H -2.4292308484891816 0.5299154826498261 -1.4672086447345376
H -2.6428181317736534 1.1163005076397563 0.24650640085539102
