16

C -1.9195871824294959 -0.5496724876271791 -0.680362196877079
C -1.3491473784058345 0.16057004373629183 0.545977125710503
C 0.07531944721160538 -0.16190749392819578 0.7564914669354026
C 1.1842453221953502 0.750095167793323 0.37133801250940845
C 2.070209718958119 -0.013670886730340013 -0.6079878835941901
O 0.7044119461799906 1.9203523649097973 -0.2024291878250909
O 0.35133469600198003 -1.2308717385064145 1.272261156635425
H -1.6064062752938828 -1.604500874887264 -0.6345499053803991
H -3.0189119204622803 -0.5325300832469844 -0.5871808008606282
H -1.5868645558643855 -0.04285213391621068 -1.610047012357064
H -1.5672788585230335 1.2405510068883225 0.5345284395908603
H -1.9400552296589004 -0.2609271487955973 1.4121586898202498
H 1.8311822381476954 0.994346038604363 1.2428836144306588
H 2.9325299798825313 0.58406819792763 -0.9437161686672128
H 2.41597468815523 -0.931475012061559 -0.0779116438810504
H 1.4230433639052797 -0.32157496015999293 -1.4539749936743618
