8

C -0.7458221249360892 0.03074415087807969 -0.04935603258532563
C 0.7471021261064497 -0.02211205861891897 0.007144408849281286
H -1.0613296500696996 1.0525592133157604 -0.3191515864311087
H -1.1147646209358368 -0.7367748481753473 -0.770671939429971
H -1.238476204596217 -0.20109636159557612 0.9212625903094919
H 1.1110248547908235 -1.0155696335921307 -0.3184572056253259
H 1.049320478498714 0.09960798417775885 1.0742560138121207
H 1.252945141141855 0.7926415536103751 -0.5450262488991625
