6

C 1.1617403906519832 -0.5077940336537835 0.8197685227308265
C 0.24746861890817387 -0.12214484369914226 0.04769949479623508
C -0.7860491001229815 0.3174304059638159 -0.7954664709716162
O -1.6705409579605308 1.1103018750010494 -0.31294116438392716
H 1.9184998375140152 -0.8190418231793166 1.4692225643428032
H -0.8711187888951796 0.02124841959567059 -1.8291908711054643
