7

C -1.3328758781038004 0.01329996385440936 -0.0003923750096386259
C -0.029528533821844057 -0.04089045912556681 -0.10583989550101937
C 1.286458101548302 -0.039368472186458066 -0.07036063000585548
O 1.8986160802158114 0.39828329848741717 1.0708365857399085
H -1.765028226006041 0.926169781963146 -0.31220772639251193
H -1.7815424837733227 -0.8659091203991581 0.3844328490582078
H 1.7239009399408958 -0.39158499259379204 -0.9664688078890942
