12

C -0.36827497905239054 -0.8073762383011611 -0.9179561008927789
C 0.0448084173908792 0.00031278258732274377 0.2790117878938869
O 1.328855925417623 0.4941320133012747 0.2830477748752256
O 1.9945037204090086 0.17007600543535362 1.3848300316898563
C -1.0545001329379184 0.9332887303849479 -0.09294939600323178
O -1.2127361449956693 0.22570883877407383 -1.2858640208958614
H -0.9729597637534172 -1.7186363251732861 -0.6984744940670292
H 0.44882593650230357 -1.0513493009611077 -1.6146644998205943
H -0.15524913255555572 -0.5676724290870159 1.2094055712595084
H 2.7189882094905573 -0.4796481010489498 1.1147151374851108
H -0.7991241062006083 1.99959895054766 -0.19969308348312917
H -1.973137949714813 0.8015650735408864 0.5385912919590342
