8

C 1.5994044788866573 -0.16866694010743713 0.08277157200360513
C 0.5068236482463423 0.5747306413315469 0.0074202852564063705
C -0.8309005175231164 -0.07307896177362755 -0.040593642083259655
H 1.524043876119131 -1.249927918428102 0.10973935955936487
H 0.6309648482686671 1.650939809085025 -0.016981803323290058
H -1.1073024023729934 -0.4134475610009993 0.97935830348837
H -1.5881661583031979 0.639627876841273 -0.41630583495266277
H -0.7348677733214899 -0.9601769459476827 -0.7054082399485341
