10

C 1.513438075562762 0.0560447108567607 0.2689645724650553
C 0.36880345886924637 -0.48791601327028217 -0.11071047676491713
C -0.799273559569857 0.3599424456463836 -0.39343631815407965
O -1.8911203585525693 0.09876396404500551 0.39683568699042976
H 1.5732142539657417 1.130253593427915 0.36685018302316713
H 2.384886595979673 -0.5548331750981567 0.4815093991531035
H 0.2713748452486717 -1.562581596810267 -0.21977866991252304
H -0.5497216093486533 1.4441048059239407 -0.273894957910289
H -1.0599909186967933 0.23418818038132816 -1.4709386659607617
H -1.811610783458219 -0.7179669151026139 0.954599247070835
