14

C -1.0514581795286837 1.4532099071541953 -0.6521997705100608
C -0.563816247413081 0.1290564658241744 -0.08002196253086202
C 0.8897206793462314 0.0036038513666787992 -0.5352471460651715
O 1.4139484072542619 -1.2377961237411557 -0.2111465888004415
O 2.6553184154965765 -1.258709326849129 -0.6341724263673838
O -1.3092984684746027 -0.8586413737907274 -0.7134163504317034
O -1.9430455533597266 -1.6434432404492563 0.09972430013034797
H -2.0251237188676887 1.7530908453231102 -0.2861873373912352
H -0.2813727265823095 2.213219010975333 -0.7080963054816616
H -0.6306458812284954 0.08726891956598139 1.012722184940124
H 1.4375208637156407 0.8169113663336575 -0.03270743815948395
H 0.8762742520146487 0.13564091399549214 -1.6381485399104694
H 3.108843476167342 -0.42009784908456926 -0.35151462462934296
H -2.5768653185400936 -1.173313366623777 0.6935548304635835
