12

C -2.200293807695678 0.08872427429628642 -0.05669606974999511
C -1.0812724199102943 -0.5733653551446388 0.21261582997305592
C 0.23977192845712925 0.0876225744751795 0.2824203614741751
O 1.0452593350398598 -0.5177162531340316 -0.6928837777142076
C 2.3226025648957593 0.01867094121295072 -0.7291040917172085
H -2.215199661340778 1.1557586773507527 -0.24229927495419032
H -3.149425802976493 -0.42265665044103373 -0.10056029086945822
H -1.1268500576292892 -1.6413689441995307 0.3899704525163448
H 0.6772110686283936 -0.058999567587349554 1.303984545033163
H 0.16397164269901968 1.1809323292925 0.13270562506760128
H 3.00576368458877 -0.4475703290111325 0.01059296487170794
H 2.318461525243631 1.1299683028900382 -0.5930595592168756
