12

C -1.8726249382144133 -0.0406711702105441 -0.33679526423560024
C -0.6683799015341154 -0.47928532316974876 0.33790257821677494
O -1.29181702414062 0.6919896092880862 0.7290875633957384
C 0.7079731102623438 -0.23423730460895364 -0.2891687190092726
O 1.4654062797606233 0.4001813826095572 0.6980242384564217
O 2.6787288898339723 0.6372794475045649 0.20106806782818204
H -1.7988971872892867 0.3725764883808285 -1.3527814573141002
H -2.831070635066163 -0.49485748541906305 -0.03712491689729388
H -0.7372507539854195 -1.3854185874644334 0.9771314465046551
H 1.1649164813832942 -1.224387914184526 -0.5828026253889548
H 0.6439390037920345 0.40120611857863825 -1.1839868228571757
H 2.539076675197722 1.3556247386955937 -0.48203953017685164
