12

C -1.3213289354518556 -0.4625109324300039 -0.022792840967512558
C -0.4693070511360716 0.7789821137088419 -0.08417716408453675
C 0.7811930898652208 0.5430503228120366 0.7104160603212004
C 1.5980399497660631 -0.5762816999956891 0.2293781562217449
O 2.7871901047492194 -0.3849396242022071 0.03892714558908234
H -1.0254923012550514 -1.1847454571904752 -0.8235850008648278
H -2.391063509917936 -0.2588906532284739 -0.07263765916364272
H -1.1284470995685927 -1.0069807494105985 0.9417680036476241
H -0.3119157381535803 1.061048502567594 -1.1176619259630352
H -1.0315012311511507 1.5964770245413793 0.42196593061338444
H 1.3502423336679241 1.4380986768280126 0.941985731471959
H 1.1623903885857287 -1.5433075240003986 0.0480124076430706
