11

C 0.8416259686801082 0.706460568012334 0.17906807061160018
O 2.176309656026492 0.3170412189190872 0.350072454448848
C 0.005588344402489151 -0.5018258915006899 0.10162012576523242
C -1.4459873765766091 -0.31392585586639926 -0.07955819771928242
H 0.7520328197969719 1.3282664283423142 -0.7324706483210703
H 0.5315018021240384 1.302528132447014 1.0784148074978057
H 2.3234503526795973 -0.4650982034361253 -0.2630450069160143
H 0.3349822178844057 -1.3826511368140768 0.6456198216541918
H -1.9395541820224151 -1.3156406497307795 0.04341460918079874
H -1.6504139312470176 -0.027289317376915007 -1.1378399915896433
H -1.9295356717480654 0.3521347070042435 0.6533689637822082
