14

O -3.217774916516593 0.8956584658749515 0.9008409711629235
O -2.0162777436891504 0.8454794588654694 0.3619682311929212
C -1.5614706033170684 -0.45212561885384134 0.4939905811570927
C -0.18354022214877772 -0.6410928145667074 -0.08992132749402768
C 0.8509015944184491 0.23413044873671457 0.5639383579297468
O 2.072475975023765 -0.045301570256108016 -0.0739173218612423
O 3.0448481012902056 0.6741079295922215 0.4299785621560113
H -2.227109768465288 -1.17566096845513 -0.04426422010108283
H -1.5562027385008574 -0.787063251298298 1.5488694937687968
H -0.20247107566290104 -0.541609852241527 -1.1756848895101664
H 0.10983741849901252 -1.7027871412028612 0.12590585872822405
H 0.6388358005739511 1.3111359364377035 0.41930467596961163
H 0.8836254272452457 0.03456178413077957 1.6430970903153457
H 3.364322751250018 1.3505671932366246 -0.20375144250637592
