10

C -0.6685746318240688 -0.48314934919373254 -0.09995295565430547
C 0.8046298780154503 -0.5858559851230972 0.2728223656795396
O 0.660864682456974 0.6700818971474024 0.8940343054879054
C -0.2504746091693661 0.9791998322458055 -0.13347620709500918
H -0.9430299340035335 -0.9194366301773204 -1.058385417059072
H -1.3192764492164588 -0.6907172173992094 0.7545229619078662
H 1.4718854006783397 -0.4584894748307005 -0.6097035259592972
H 1.0534102435678303 -1.414440250013679 0.945499956073356
H 0.22961087224154356 1.2044481618688267 -1.1137070384007617
H -1.0390454527467141 1.698359015475691 0.1483455550197721
