12

C -1.5825545867285056 0.4287282432457331 0.7269456812559598
C -0.7872182665583626 -0.6460112644483039 0.08518520591070644
C 0.4863351711500887 -0.15382901757906564 -0.5640622710923922
O 1.2538262206475392 0.43209013936187785 0.4416658609861702
O 2.3896071382787767 0.9032093763976679 0.017577040590088838
H -1.2886350616459117 1.4561846327783345 0.45378512873486115
H -2.6639162938275938 0.2591291798831372 0.7390143972408807
H -0.5851609564369061 -1.4516105297334703 0.8095680317792683
H -1.4170734600343025 -1.108840564650718 -0.7259893883688336
H 1.0473401452630269 -1.0103415650579262 -0.9871247171885479
H 0.2831405558486629 0.5713888672401021 -1.362292480138122
H 2.8643093940434468 0.31990250256264996 -0.6190617140374044
