14

C -1.415994628858315 0.7597084218685909 -0.16487374036037117
C -0.5872126817247549 -0.4890917981595655 -0.2093608728952018
C 0.8359696125694821 -0.2803513059245815 0.23120598477838858
O 1.5418153472854519 0.5981514576308792 -0.5601584693356146
O 2.7572390856737785 0.685071806893966 -0.06506892738766264
O -1.16518381015865 -1.3962052378186427 0.6832463255979795
O -1.5678935635884168 -2.4794941467693676 0.08066529274069045
H -2.273780655458786 0.6377377284235758 -0.8570711829779821
H -0.8620431592906285 1.6656760460717943 -0.4389455224837618
H -1.8182004107145306 0.8715088833739548 0.8748448230831992
H -0.6318431798390295 -0.95848675968101 -1.224386052637742
H 0.8073481357714155 0.0901386708435188 1.2808560591603324
H 1.310635974403413 -1.2895712805688002 0.27588101772679974
H 3.0691439339295576 1.5852075138156954 0.0931652649909455
