12

C -1.851933824441809 0.22917426981198577 0.08962376662850799
C -0.5433793657939415 0.07051306275725334 -0.6393471871805059
O -0.5281159269453601 0.01346085665029628 -1.832340832457296
C 0.7077376135680337 -0.012363667553192874 0.14041768383995448
O 1.7673931144356536 -0.1546891442731875 -0.7496017321177708
O 2.8710762946313917 -0.22668316979579003 -0.03781785284681142
H -2.4190418736165316 1.0066832060788888 -0.4777660646759076
H -1.6991231547696788 0.5088325185808458 1.1346615986079325
H -2.4544417638181013 -0.7019823607017713 -0.004252116203360014
H 0.8068725024025466 0.8828439366320582 0.786388428875061
H 0.7132902259153376 -0.9105567577597296 0.786511148723949
H 2.629666158432611 -0.7052327504276414 0.8035231588062188
