14

C -1.5071597203299387 0.45635421420682487 -0.07929187653198369
C -0.5740950962157922 -0.5901188405251403 -0.5890826366905345
C 0.6532823448609463 -0.7633216215737296 0.2778427421535226
C 1.445621032032486 0.5163905818577691 0.3656580096269405
H -1.9186167075186273 1.0440256115792632 -0.947536243687208
H -1.0459301916467656 1.1615767162342012 0.6354451185919998
H -2.427914578716073 0.014402051657612618 0.40255646069748685
H -1.0751950891695357 -1.551743139807614 -0.7169903450420644
H -0.19833466840859465 -0.27521311240659774 -1.604073304487242
H 1.32039855266441 -1.5230791137926387 -0.17872684890255353
H 0.41017109553233794 -1.0947102477046133 1.297086151860536
H 1.6117401470676969 0.8313344860713975 1.4038134216531335
H 2.4431666492716815 0.4451111140640796 -0.11247496962203694
H 0.862866230575813 1.3289913001391762 -0.1542256796199963
