6

C 1.7987125593612912 -0.31436047765978054 -0.9490242130159015
C 0.6727789459871649 -0.12429349975113828 -0.547949215993728
C -0.6550217868372769 0.10980694492722456 -0.09801959347910755
C -1.7907811983835467 0.3108075527436035 0.26465611509755005
H 2.7779636226620594 -0.4786133491045672 -1.3168925968383858
H -2.803652142800165 0.4966528288456353 0.5700182303226229
