7

C 1.7507477179690605 -0.2681021000677704 -0.3050893093771244
C 0.7964210172458451 -0.4596126335056564 0.08280669305881624
C -0.4739860547346858 -0.7238968001397572 0.6020508900238334
C -1.4260681813929788 0.2310642594456471 0.29486874233871335
H 2.941606582276399 -0.007721376741202775 -0.8005529214671847
H -1.2189662343458179 1.1019667917630827 -0.29206968635242353
H -2.3697548467078526 0.12630185895505414 0.7632944272398083
