7

C -1.5992449435150211 -0.7709316993694154 -0.04483420423841255
C -0.938015806170291 0.25997036725112943 0.4620082983841881
C 0.4974254065474997 0.30512465905232533 0.4945750123678907
C 1.7187146280323047 0.32529522837352987 0.5117030587081
H -1.0135494917233072 -1.5900211713460013 -0.4393485677531986
H -1.44598883514955 1.1285049271130267 0.8812590612872256
H 2.7806590421286357 0.342057688917094 0.5433823511023517
