11

C -0.9477445313922499 0.7381929538718635 0.08409456813905836
O 0.22836635779972034 1.350670366653636 -0.46554606236108004
C 1.3029440970459116 0.5219894790728905 -0.09067514944534794
C 0.8671793943467444 -0.7067597817788444 0.11478516855618291
C -0.5957178791562596 -0.7271913077026878 -0.1331593549073234
H -0.9599453609708554 0.9035902818163707 1.175680123851646
H -1.8537264577579602 1.0416257971362177 -0.44008222005390174
H 2.3427638273989957 0.8186047921245754 0.021116912640617585
H 1.4849039535542294 -1.5396775067504225 0.4117451825971243
H -0.7262713473044949 -1.0036639901462405 -1.2160004864143084
H -1.1427520535637747 -1.3973810842973573 0.5380413173973259
