10

C 2.3214064469570372 -0.16161601976506515 0.06385277911118405
C 1.035263870212649 -0.30186612648070893 0.31603219664583276
C -0.4137843691666597 -0.461730669908294 0.6199640140987885
C -1.117452229529217 0.45000978530804414 -0.3494338339282911
H 3.2376293199940904 -0.04832218970362942 -0.10640625643042646
H -0.5605393531962598 -0.07673873904385854 1.6480263459711388
H -0.672652425250023 -1.5229736585644973 0.5696407527014239
H -1.690191302031357 -0.156620623697512 -1.0629233976105281
H -0.3339236672703875 1.1154358847403243 -0.8414499904964062
H -1.8057562912071659 1.164422356923684 0.20387022735849422
