10

C 1.9939803347957565 0.5269154159619334 -0.20742543431338822
C 0.5928870184057226 0.13774566516775097 -0.06329577679011644
C -0.5844262145944299 -0.16935861407270345 0.0647689244867634
C -1.9968696230374365 -0.5318968164649871 0.19322029329080556
H 2.3282245290351513 0.5281269599846388 -1.2473683454170983
H 2.1795620537727505 1.539111453777731 0.25718696390250145
H 2.608004217257199 -0.19214440067993915 0.3665404836043008
H -2.631521899788961 0.039712449371650756 -0.524043576396195
H -2.170241402991998 -1.6049683297562705 -0.05194655013721652
H -2.3195990117752223 -0.27324378428313073 1.212363018309053
