17

C 0.669060112962128 -1.5256767532300106 0.9194027645116175
C 0.737042359804935 -0.33427857455079113 -0.006890656505966665
O 1.7701565757274549 0.4835954501009247 0.37177588772361364
O 2.680873180399641 0.6640978064766604 -0.5520646082571673
C -0.5795645238924777 0.421583494050577 0.009372531979807147
O -0.5051032108121604 1.4731749956055222 -0.8577819514598491
O -0.5724077888581179 2.6495555286767347 -0.29153663345001063
C -1.7525965728546942 -0.4858353056454244 -0.21383484753073131
H -0.257811084854195 -2.1207000181906563 0.7398874450534563
H 1.5866511911736088 -2.1302279726080147 0.8003494689352008
H 0.9147447233105578 -0.6697222574106733 -1.0507199349222263
H 3.574115952534032 0.3364773320788289 -0.28790747394617905
H -0.6852877227193526 0.8347536447309939 1.0488495188888338
H -1.4238581760538913 2.6984919979324515 0.2450347206057945
H -2.0644040278307343 -1.0174689494744478 0.7091350799430318
H -1.4657666661886166 -1.2911230919376901 -0.9459422244342389
H -2.625844321848103 0.013302673395034234 -0.6371290871349669
