12

C 1.3775034355086682 -0.20939075704956198 0.514476471266613
C 0.7096482898154749 0.5253327188296565 -0.567671799581319
C -0.5831990901919026 0.485039467080035 -0.7452492254186188
C -1.487824086581652 -0.2995706501326527 0.12210558890413183
O -0.8850057082387508 -0.9877548130977679 1.1320876681029
H 1.0274906311898506 0.2115264748873912 1.4913666558423808
H 2.4944729831341435 -0.03817014830165662 0.4117042260695802
H 1.2710305169281502 -1.314649971974693 0.4629078597606677
H 1.3155458567630622 1.127740471088565 -1.2490168257327747
H -0.9964255904506119 1.0701396962401761 -1.585911211817909
H -2.22151643052972 0.4632489589037561 0.5316067804482727
H -2.0217208073468536 -1.0334914464732459 -0.5184061878439591
