17

C 1.1756400056288763 -1.2368349876413953 1.117235709142073
C 1.1869846711676666 -0.2661470612302106 -0.03620763670072657
O 1.6135645087997532 0.9561358522411866 0.44597921425433545
O 2.762511960314821 1.337245772459366 -0.01966851521968877
C -0.08293902864437416 -0.21615663176695693 -0.8022175150859217
C -1.2884626800476784 0.18701225860507 9.524806652042919e-05
O -2.4404329189953655 0.21123837751864655 -0.7857017011574611
O -3.4291251405821455 0.566913669341339 -0.015754803884403857
H 2.238003725758071 -1.3208211987669052 1.464985309974744
H 0.6051141597752128 -0.8640994232544787 1.9898475263577224
H 1.9814350539469778 -0.6263766467122226 -0.7363566600763456
H 2.6733574945448026 1.3375955855576174 -1.0247594564540237
H -0.26485147204356746 -1.2088879148369254 -1.2626928845620273
H 0.0400248356658532 0.5217952005271219 -1.621656605494893
H -1.1000499439780171 1.2029269919894285 0.4407215884841033
H -1.4990616783431348 -0.4989451147762235 0.843040486846022
H -4.171713552967783 -0.08259472925446261 0.0031106955099931147
