14

C -2.404124736626965 0.14067569111935893 -0.24276449625590027
C -1.2899255245809669 0.8010548855117284 0.04396580191425953
C -0.24447151844444528 0.1220878900420214 0.8454662459525021
C 1.0690032601472572 0.021331893829930174 0.08884774901763647
O 1.9594198983883804 -0.6392960427923858 0.96594103455832
O 3.1132082019405276 -0.7581157118953886 0.3727452178029266
H -2.5686573147819933 -0.8717330741843362 0.09002068296544026
H -3.212404478279135 0.5836592952423897 -0.8288267061247827
H -1.12827785388814 1.8005311246662914 -0.28496160536692944
H -0.5509848263104399 -0.932294218623655 1.0964896372040387
H -0.1350703658639021 0.6391432023516546 1.801363897020155
H 0.9791378332537828 -0.6518612601820989 -0.7871463973945522
H 1.4218274743186206 1.0312671626431527 -0.15364556011067743
H 2.9913199507274526 -1.28645083772866 -0.4456626303024477
