11

C 1.532386354344122 0.34894633171166634 -0.1710408600394931
C 0.8153423215675705 -0.749474311045323 -0.20944956452776342
C -0.5361097012393315 -0.8713316789834039 0.40667275602480196
C -1.4155179732661038 0.318803971253114 0.03456653394550262
H 1.1494824510425286 1.2196814565029697 0.32341841316201053
H 2.4964430237629056 0.37664516609846027 -0.6314745709421625
H 1.19518581454594 -1.617192149866311 -0.7013553753529949
H -0.3793334996297628 -0.7814625817558207 1.5143709266718481
H -0.9119918323840333 1.2097422097965043 0.4380202110096354
H -1.556551183318624 0.3731781606938359 -1.0624924049473274
H -2.3893357754251965 0.17246342559429298 0.5166490554864034
