15

C -2.1509368326455713 0.3098827748478516 0.19647952724383672
C -1.1349556095095867 -0.7479196374792297 -0.2590622702341595
C -0.2470686476140524 0.4308484776758848 0.08752599573410544
O -1.1566143477402329 0.7036626646803048 1.1245121792446373
C 1.1357484338354118 0.08671705982358813 0.539375412612836
O 1.9165976845080084 -0.15505746526232964 -0.5687839463580641
O 3.1637324419649464 -0.4683122606390272 -0.2507379008666268
H -3.059637056791264 -0.09163411769222182 0.6351994632499255
H -2.267598443798878 1.024289517985821 -0.6531327656930555
H -0.9892817768236395 -1.5648355687306106 0.4618442203804786
H -1.2159733683832223 -0.9975322624531008 -1.315184056543261
H -0.33843118354909435 1.200870746178563 -0.6803840958389912
H 1.0672920174850533 -0.8894273639470817 1.099507580620072
H 1.571393134834205 0.809594833934933 1.243603173033775
H 3.705733554227922 0.3488526010766916 -0.05581350828002583
