14

C 1.9691339129119827 0.16996619190731937 0.450342170009563
C 0.9938409264421985 0.5938542210015622 -0.3170775023206192
C -0.4175194973122139 0.14581412770126467 -0.20395235045448215
C -0.5069058464510783 -1.3161996140941739 0.2097889019077777
O -1.1497302945792425 0.9188001123932518 0.6757529724143565
O -2.15917572173433 1.497933813820173 0.06744667494411549
H 2.962249825508232 0.5236416977889328 0.32646963452073713
H 1.747493966453635 -0.5479560319910202 1.2146385680545235
H 1.2490096136991498 1.332032966724712 -1.0951171100818549
H -0.8752037976246055 0.2128548768319958 -1.211089122528727
H -0.2777552809721065 -1.4698958067956243 1.2700066703223767
H 0.13731384039068056 -1.90094242631768 -0.4824034728605269
H -1.5532524004886918 -1.621033473988819 -0.00045120606282638895
H -2.119499246243679 1.4611293450182796 -0.9043548278643777
