16

C 1.7748945363968063 -0.009544771805177236 0.42896876080412216
C 0.5912656496897951 0.8354328130288505 0.13504971170720295
C -0.5628341574305886 0.08647120822564636 -0.48436519458762367
C -1.0801673917360368 -1.0179625476946652 0.3840567352943668
O -0.15950976046171753 -0.412720076699721 -1.7029447129686954
O -1.6111541170608068 1.0078089885797044 -0.6581581483949002
O -1.8865922012040632 1.4514749922414023 0.5662805138324679
H 2.533061550143039 0.11349070010867793 -0.39354165757896026
H 2.29093182713888 0.36449415256058304 1.346810750680681
H 1.5909528401087416 -1.0740668868566774 0.5405489173982099
H 0.24963900383672324 1.3515621776310904 1.0609447998667745
H 0.8648591118372986 1.6412259712304438 -0.6050791954343784
H -0.6362631492365051 -1.984637744625228 0.04823555812262456
H -2.1871139923765437 -1.1413852807291427 0.20410261983306444
H -0.8444123123394621 -0.8998928896624292 1.456750697820949
H -0.9275574373055722 -0.3117508055333657 -2.327660156395882
