12

C 1.3159127957584213 0.6079582888441765 0.20682715248102523
C 0.7224291630835796 -0.7657163114626951 0.11803060088788808
C -0.5659192956220317 -0.9394790005505017 -0.09615314071923535
C -1.4129569412313148 0.275465377240222 -0.24710175793449465
H 1.5710784924206784 0.9091227950856979 -0.8284097214794199
H 0.6438280788198708 1.3204502766503547 0.6874185411946804
H 2.2310644163063587 0.5192764185821978 0.8325355006095326
H 1.3434135289583 -1.658111640592024 0.228716179861708
H -0.959349309591904 -1.9431195150767928 -0.15431589093748663
H -0.819450551550856 1.0342710393820436 -0.7552449006882975
H -1.7019700378461216 0.6033435446260814 0.7935340877791954
H -2.3680803395049908 0.0365387272712433 -0.7858366510550807
