13

C 1.8200876238829344 -0.09247259665492914 -0.19931558968675772
C 0.34315457059674226 -0.09975308887889708 -0.5950084066555943
C -0.5270339918837285 0.07918970558373398 0.608182113593196
C -2.0110001370378643 0.08442332332717027 0.3075709852067632
O -1.386500708123268 -0.9059197004245891 1.0300724355911446
H 2.4149403061151626 -0.24318596346450383 -1.1233217789350163
H 2.0930490649851867 0.9043989108445503 0.24540709462946342
H 2.0156687315769957 -0.8563528005767054 0.5767928992987605
H 0.16972408573880135 0.7879027881450542 -1.252496177043093
H 0.15610445802304937 -1.0563502537943141 -1.1026332630552464
H -0.13658935405984943 0.7293617217552254 1.3801175124535685
H -2.376169750427133 -0.22430621378400467 -0.6777798363813192
H -2.5754348993870306 0.8930641679222102 0.8024120109841358
