13

C -0.8866590964121672 0.5778912365862309 -0.20025836905121935
C 0.5424832164574095 0.9062088830381458 0.19098090082213956
C 1.227570326473133 -0.41613228570668104 0.018262803969421815
O 0.3131870034559879 -1.3191003128353602 -0.46615244752662344
C -0.951489554138002 -0.9164194786644819 -0.03901697457316829
H -1.0482315810070812 0.8385384328223239 -1.2707369739836012
H -1.5384556426730762 1.1293415954249648 0.48701886216262774
H 0.6125777704212128 1.259855280782748 1.22671301937975
H 0.9123529257156939 1.7003633447251285 -0.4676651140833447
H 1.592879678377956 -0.7897981551607126 1.0064119916001821
H 2.071128988261475 -0.3673442729670326 -0.6995373663166311
H -1.6736768546870782 -1.3696591601304622 -0.776286270783434
H -1.1736671802454648 -1.2337451079148136 0.9902659383838982
