17

C -1.809904417361596 -0.4628819835852203 -0.8980008918024689
C -1.4340897192595048 -0.040848220145784465 0.4790040803508418
C -0.05957079389749983 0.535042885907682 0.5988468626487339
C 1.0214021986944517 -0.4362721737712069 0.17900558534256006
O 2.2736169652137126 0.10019452692975031 0.4722840253698348
O 3.24801347019558 -0.6832577867114079 0.13663810848468744
O 0.10325179287393589 1.724225095686606 -0.08615086240364013
O 0.3876622163257813 2.7404385024351225 0.6778119752677659
H -1.5168651270671833 0.2396562985270574 -1.6915427031423091
H -1.4538684693272637 -1.4989323457093067 -1.1323096914721125
H -2.928101094726462 -0.5297675510783948 -0.9406029610656866
H -1.5485773440475659 -0.8876417356189119 1.1607433905854578
H -2.1494062831146215 0.7432561751940581 0.8186975775589341
H 0.10342968870179277 0.7688438445642615 1.6826693665758294
H 0.9919467067369876 -0.566278071907323 -0.929895022206838
H 0.8807646427093719 -1.4373282131659466 0.6173942865371482
H 3.890295567350094 -0.308449247551054 -0.5014212027947089
