17

C 1.3905429498981363 0.014420000399923104 1.0845470769267185
C 0.8490042160111081 -0.30482897072091764 -0.2842790048309569
O 1.033014831333992 -1.6148028511937405 -0.6572510063839359
O 1.7968068066814387 -1.7512867738065325 -1.7283043127354352
C -0.5972467687194175 0.08109015194902101 -0.3881279347809983
C -0.7839603177605713 1.5506728712473856 -0.07628302836060542
O -1.3952247408801566 -0.7047865547466374 0.4278049525816598
O -2.2666055090199166 -1.3985315691036828 -0.27550546583886687
H 1.1648958155430809 1.0898216551279103 1.2754410464446229
H 2.4811622381462657 -0.18587997721865585 1.0783588712315206
H 0.8711435728960645 -0.5736556385584382 1.8602447493202283
H 1.4094442362221464 0.3591906978396996 -1.0022394932876657
H -0.9121524613107849 -0.08779732084928672 -1.4335834854632417
H -1.786399492667224 1.8827361175283812 -0.4200487208455887
H -0.030131926576782594 2.1437457814772984 -0.5970505301475477
H -0.7397343814699064 1.7690879868358358 1.006862841649814
H -2.4845590683274903 -2.269195606207555 0.12941344452028697
