17

C -1.514419937932294 -1.2373788050078889 0.4153733395136915
C -1.3050883538296583 0.21676707584722762 0.13026130273398787
C -0.043377236392625834 0.5197014557119001 -0.620993130713118
C 1.1974116029595256 0.09217763680317527 0.09139315154912599
O 2.288848235657952 0.4331676600882051 -0.7163234462820223
O 3.4341838876223463 0.09681945311727132 -0.17286064520544708
O -1.300406721139817 0.9444324142873072 1.3017701952712133
O -2.3029656454056457 1.8057864588587953 1.2871105196954056
H -0.641176280771922 -1.7490597564392014 0.8469719231466114
H -2.3889524569905016 -1.3151850846292619 1.1002528729864625
H -1.8337616544903736 -1.7504833598454679 -0.5262396851171717
H -2.1558386513587444 0.5448415129228433 -0.527455961278189
H -0.0020363603944166175 1.6323432304048404 -0.72092108734129
H -0.08345340197832106 0.09993840371824374 -1.6407726387064971
H 1.3114299719731817 0.6971432901300707 1.0245134123984594
H 1.2667743148682695 -0.9853353536458105 0.2786187427303295
H 4.072828687602976 -0.04567623232224649 -0.9382523061494379
