12

C 1.7966039913105258 0.6886774681719925 -0.30470327974381545
C 0.7819064009359097 0.32217013293700364 0.46781571612877987
C -0.18089452134622167 -0.6597092743185159 -0.034968774672305414
C -1.591764649985776 -0.12405661768136385 -0.09859648344043871
H 1.9310685333366766 0.27920426181009816 -1.2997186124093951
H 2.5353658509857113 1.4149400413015398 0.02819300293460864
H 0.7116051629349169 0.7815130417598941 1.4660309077139315
H 0.1321942315550554 -1.042281531034662 -0.9990541766239037
H -0.21874817736016097 -1.497310054903687 0.7219050439084702
H -1.6615598129937186 0.7784438129051046 -0.7237121948618926
H -2.036247129143007 -0.028608690700154597 0.8935444154791077
H -2.199529880229914 -0.9129825902472674 -0.6314213307325524
