16

C 2.043094642482917 -0.05117220599527242 -0.2915475612970157
C 0.6749910486144988 -0.6412702289100676 -0.02386814324380107
C -0.3616243271621438 0.4666355104938299 0.07808079376508578
C -1.694748255004231 -0.23308320997608598 0.3469657947964321
O -2.056911496385735 -1.0342456583455764 -0.7174752506991356
O -0.06976729671815077 1.2364983749257628 1.1669002452482546
O 0.10926928343216422 2.498101439733515 0.9145370710843019
H 2.2620129221565692 0.745882677324066 0.4509757645513667
H 2.1208710145923035 0.2733458420911192 -1.329359651612198
H 2.796976429170358 -0.855005130339427 -0.1107025337502454
H 0.6513457638590693 -1.2055839830466657 0.9235980023268046
H 0.4039056486330826 -1.3251637382484975 -0.8590879055364962
H -0.4134712915585452 0.9842670790297435 -0.8799302030242334
H -1.6063845813947746 -0.873554555797157 1.2609275107776656
H -2.5028389884515763 0.4807595177888584 0.5470525700418106
H -2.356720516265827 -0.4664117307281434 -1.4770665034285955
