14

C -2.3412117462466697 0.23172246871113372 -0.5923596675055568
O -2.1056603069913398 1.4065495477083583 -0.7213130452745768
C -1.3569468886989906 -0.6475724132731191 0.05970989582390011
C -0.1453953170805414 0.07843300795670638 0.4904447253382959
C 1.0289059536329486 -0.26971111538899717 0.006235618178964802
C 2.2998377397715437 0.4130563150985901 0.3905063759685889
H -3.2636881553957857 -0.17554364199881076 -0.9501587344223944
H -1.7727360368789917 -1.177505245747056 0.9462797911861112
H -1.0578078588563395 -1.4421852424274693 -0.6699731695041573
H -0.19771821482559654 0.89473189627046 1.1985123828939084
H 1.08778004599605 -1.079997555461272 -0.6977020717013794
H 3.0700540423189797 0.31927477894531775 -0.4017107543924092
H 2.6313378312624347 -0.05677809610890118 1.3417694796649648
H 2.1232489119920746 1.505525295715084 0.5828634082912154
