19

C 1.98447329922052 -0.19048608897875252 0.6435229257835916
O 2.468350102839611 0.22519561340309377 -0.6174798277475083
O 3.652497835221622 0.7784232747634542 -0.4892562586337546
C 0.6405288995643458 -0.8248975613973415 0.5425581811400946
C -0.3958657516029286 0.12852672419264802 -0.03719600579341024
O -0.4698375847533768 1.232709868388138 0.8116761651661377
C -1.7631610195855902 -0.5224692696103473 -0.03225644738221728
C -2.775111513033517 0.42008690193570725 -0.6030393650524769
H 1.9855903462365236 0.7234277892414565 1.2828193676256492
H 2.6887587767416328 -0.9421177217854378 1.0511908546810145
H 3.775276548602247 1.5241022454414295 -1.1259574212559313
H 0.7136982974355813 -1.698335304508492 -0.12347889446735362
H 0.32159976214600555 -1.1072518165052203 1.5633096187802291
H -0.13396688942947085 0.4683506946830033 -1.0412124359306565
H -1.6635717440941769 -1.4609249922448155 -0.6198727566414192
H -1.9922262276740448 -0.751903465402161 1.039239004376233
H -3.308938185469891 0.9045113139483112 0.26093888934006965
H -2.228976803784666 1.1762460512576551 -1.2188897792712334
H -3.499118148580454 -0.08319425682233829 -1.2866158147171174
