20

C 2.8854694575639876 -0.09128150956710111 0.3265619862130356
C 1.491750566130123 0.4217332196018915 0.47326931749281603
C 0.5136257308510569 -0.5995834705645787 -0.11885687868004138
C -0.862719927494634 -0.02423688864415553 0.06063555015680267
C -1.9523953662765472 -0.9106502757974689 -0.47247701959910676
O -3.1662401069975274 -0.23681999679854962 -0.25736684300128404
O -4.1653004605330635 -0.9727699147054538 -0.7095273325047582
O -0.9148974518705638 1.1748894809874084 -0.6413162581718352
O -1.199248999697175 2.1341152062145903 0.23147891261786624
H 3.36788021705086 -0.3291680846807523 1.3159994088606402
H 3.5309918158019578 0.6924003332964309 -0.12959662417298703
H 2.9521311890391067 -1.0384786067704128 -0.25688417830140864
H 1.3465479170995902 1.420074734761972 0.024510012940939595
H 1.2839316832335743 0.5496589390052355 1.5677081004535003
H 0.6476825041459509 -1.5529458988701923 0.39123342808538014
H 0.7585766627238283 -0.6752781136076869 -1.1860108792491801
H -1.0674398616265948 0.12430994088464041 1.1462517073077954
H -2.039375808959384 -1.8663965895460413 0.09692422745174473
H -1.8247989203958723 -1.1033627248138327 -1.5666328377316625
H -1.5861708397886403 2.883790219614063 -0.29590380016828216
