19

C 1.6476376570071591 -0.9015836728016148 0.5831287810995386
C 1.3206237223240842 0.15265278760763865 -0.40765121867711135
C -0.02278098128595911 0.791771263625089 -0.2680956901191521
O -0.19961275078316895 1.4005864196551914 0.9805486083158971
O -0.24110826133864946 2.689186630441866 0.9360570703109374
C -1.167841932290981 -0.010390568711435094 -0.7402835171932797
C -1.4418931149209082 -1.3160620573396908 -0.10317991548150603
O -1.7159234170923172 -1.269011738570833 1.2576601097613962
H 2.6925495491691804 -0.725898991487932 0.9492762212180899
H 0.9421606767967853 -0.8955861056152224 1.4194989459578131
H 1.6538461103935929 -1.901263167187708 0.11042983048401855
H 2.1460528724625725 0.9125942909849046 -0.45291253706129164
H 1.33908828108929 -0.3290592825717975 -1.4367151485828953
H 0.032427391844301524 1.6965932633415566 -0.9831000950448927
H -0.8086593109505259 3.1248127506919827 1.58982335385894
H -1.0001440741830037 -0.23498511460236743 -1.8415189856479615
H -2.1117524703898445 0.6183231985793324 -0.7786496260516071
H -2.4035780144146264 -1.7196380058278427 -0.5576251741508308
H -0.6610919334368202 -2.0830419002110836 -0.25669101299610053
