17

C 2.4506853002434257 -0.14748123316934125 -0.19840781295141474
C 1.0852544461880522 -0.11946213825596574 -0.8098779871931849
C 0.07218705297162276 -0.22556468502855198 0.3282576545654762
C -1.301951833858223 -0.19584739717386515 -0.30563074491513814
C -2.3238392736642703 -0.2982423052198526 0.7828959319866897
O -1.4386179751485295 -1.1217208758582766 -1.3091785287574933
H 2.383849865062329 0.2978594383965601 0.8159199438284369
H 2.8143515538272115 -1.1887978641653179 -0.0688441883252928
H 3.1860897833207766 0.4854902966397914 -0.7527216280176601
H 0.8839598101137021 -0.9469708143137505 -1.5075895682169858
H 0.9056795174485149 0.8559178240304788 -1.2929699463035373
H 0.20964559071199965 0.6486675716818178 0.98972353741061
H 0.27260888348869033 -1.1564577367611588 0.8578053757521705
H -1.4155974549505235 0.8195554687425903 -0.7867865299634423
H -2.478069881393332 0.7218049417155095 1.2004506305921736
H -2.00251402862877 -0.946722538603666 1.6270142294932164
H -3.3037213557327765 -0.6968891651553152 0.42993963101537314
