19

C 2.0358209321050715 -0.00777419944599237 -0.679370955097605
O 2.4384650745580876 -0.3063774293776261 0.6212595403051367
O 3.6756192859134744 0.0743781808188396 0.8642525696918758
C 0.619454555191804 -0.4856385598064776 -0.8361847463784327
O 0.11644504031744521 -0.2323911965703699 -2.1140497819492188
C -0.33435283020887996 0.1681780687009363 0.13698079467257915
C -1.699308991626784 -0.41824737296208786 -0.15334418221544904
C -2.7655309869735416 0.14654772962362467 0.7509628749207063
H 2.662497309406334 -0.6471769025626036 -1.3473908877757257
H 2.175392301649576 1.0438572026561577 -0.9170799939502206
H 3.678912097454454 0.8188826916560195 1.5121759483998227
H 0.5354323279217331 -1.5798979333345242 -0.6796199949221258
H -0.03325487461476664 0.04409227160923544 1.1884680970904384
H -0.3803347165961018 1.2670149942023923 -0.07676793085688743
H -1.9234509995438118 -0.2165778328642371 -1.220094219345761
H -1.658745173823943 -1.5257273965809608 0.010062431686887767
H -2.962665719639219 -0.5473643410217841 1.5933997590104738
H -3.6988773480274233 0.21096905965652282 0.1490410021384791
H -2.4815172834635555 1.1160496619555091 1.1972996745750364
