19

C 2.349617539731212 -0.7607157473776935 -0.11520313940848446
O 2.3071490138920336 -2.07645788803733 -0.5688759937840249
C 1.0301815114303805 -0.31214156741782495 0.43345048676320935
O 1.1620577985338971 1.0000645276554154 0.8595499550985681
O 0.8015575642442038 1.10963735354073 2.1251280259050134
C -0.01880238890396812 -0.2927765947306255 -0.6856790113702299
C -1.3070458603254749 0.16805237186519698 -0.04468433128073395
C -2.451210185305292 0.2465004375429064 -1.0007056145293236
H 2.567504983859186 -0.12164190038615995 -1.0060690687584601
H 3.12764108468554 -0.5794504193184965 0.6257306787136616
H 0.6569351479140195 -0.9241633869881264 1.2662631081547873
H 0.4820977119068207 2.0497445054172383 2.301524431565634
H -0.08254012881750074 -1.3227892397699912 -1.068920285565478
H 0.3656988075255079 0.4047005440714592 -1.444354291117687
H -1.5032689880933203 -0.5291399590190415 0.8075544965508747
H -1.1146014616802968 1.1589170626819194 0.4254858201937815
H -2.1952696166445844 -0.021890635208807054 -2.0361044030040216
H -3.2482922412358497 -0.45850289822966567 -0.6257585234223976
H -2.929410292716496 1.2620534337089102 -0.9556897563616085
