20

C 1.4049170293250366 -1.5138105390934293 0.5483293008008194
C 1.324805908774108 -0.7259703949932015 -0.7424969404877602
C 0.3978175294267299 0.46168809004833106 -0.5234317030044401
C -0.9597164030931957 -0.07574077473708689 -0.13832781598837246
C -1.8931686972917472 1.0170333326347736 0.3310206439935646
O -1.4878109138860938 -0.8065767302303687 -1.1900686784995238
O -1.6713106203976038 -2.065737758325345 -0.868850153056978
O 0.3430826855722138 1.2855943304105797 -1.6246164221377313
O 0.8179415775720634 2.4767351799029123 -1.3495232929735226
H 1.0808351014007895 -0.907570729746685 1.4285839947856778
H 0.7129296647872981 -2.39649030485303 0.47127239791925857
H 2.429811215027705 -1.8924107026331767 0.7380923299135671
H 0.904999903723096 -1.3449904917512223 -1.5413861285451258
H 2.3458024648672433 -0.3850594688502571 -0.9730202639343377
H 0.8372863241804811 1.0395417098983488 0.3145040426035321
H -0.83005895352481 -0.7710937165109168 0.7171328889683977
H -1.3241524283968429 1.8552026973735505 0.7642385712717414
H -2.5454923909605642 1.399255774279917 -0.4570725463450715
H -2.562132268343503 0.6414107477598137 1.159655790875837
H 0.673613271237554 2.7089897494164967 -0.39283099502480245
