18

C -2.7505245109802092 0.19396448269018973 -0.4331887146111046
C -1.430038495008346 0.3978761958486289 0.27833125121979935
C -0.34212243557694655 -0.3903197036430651 -0.4124103236538762
C 0.9984001689432388 -0.21381184051769273 0.26880859571273147
C 1.4294465206506395 1.2382825814832128 0.2739321757845164
O 1.9542573407275898 -0.9037155162372253 -0.4910070257774859
O 2.5664459807483557 -1.7833983889294827 0.25985823082363424
H -2.6780962252314593 -0.5674767809491986 -1.234342046200504
H -2.983721706019124 1.1671404564093446 -0.9437188714339029
H -3.5804976945306937 0.017270136096897995 0.2718542331044891
H -1.5590392365032866 0.03761370461552006 1.306458291696739
H -0.27846595188636364 -0.13760991391856767 -1.4890574271530954
H -0.6197013503636051 -1.4621945097141085 -0.35023096779114166
H 0.9794944999163292 -0.5611164602784816 1.3033841239683095
H 2.3998908285442093 1.2648357807929969 0.8397444067790037
H 1.679423683673803 1.560959459707164 -0.7657167666876047
H 0.6857786058689957 1.8989814612742175 0.7561683444760842
H 3.529069977026833 -1.7572811447303145 0.009573161128156534
