18

C 2.563819248041378 -0.4193699226287312 0.11602363819541071
C 1.2685681085790932 0.20026638942818517 0.5876858132450071
C 0.07375873811352414 -0.33668134855342746 -0.14547501114386818
C -1.150634281390464 0.3576062338445834 0.41474584488174826
C -2.4170009137372745 -0.10522389707356099 -0.2503309545273784
O -1.198122860475893 0.11235915215169422 1.7680839981226184
O -1.1420573033245036 1.2028854631315076 2.489016773115174
H 2.7870435615383684 -1.3612941622323471 0.6332643207007916
H 2.57261940713611 -0.5621569107468652 -1.0047334762409659
H 3.3821142227993355 0.31207594212435275 0.3076696985578949
H 1.2680279118414093 1.3004232849261863 0.4655378256832857
H 1.1697315481475667 -0.031505492626834816 1.669257926602284
H 0.17714060206091847 -0.1353252599508054 -1.239862666144116
H -0.043001999031369184 -1.4320705554650186 -0.04941831235205012
H -1.0744887834642833 1.4531093650371896 0.2705413831224476
H -2.7112513045537745 -1.133791434805471 0.03367699015075701
H -3.229029888968341 0.5840740594306658 0.09339172135211116
H -2.297236013312026 -0.005380905991353171 -1.3572530988840248
