17

C 2.0717071347993286 0.7086539254092358 0.1414299267999873
C 1.516985367509293 -0.6236818557785857 -0.23870147356074334
C 0.07742165472483786 -0.5721371704210058 -0.6757900526812379
C -0.8302021733832452 -0.03762858753675956 0.416520075940956
C -2.247972494180065 -0.03761437265629489 -0.1543578932132465
O -2.427295025220143 1.2029489011152787 -0.755137254155836
H 3.1864015806452204 0.6618450904705689 0.02382306554104353
H 1.8826753941885352 0.9996171873033407 1.1852880884863453
H 1.7387194640802368 1.4856240094461195 -0.5869195505447077
H 2.119996178140719 -1.0261977239380475 -1.0780816209236506
H 1.6633073134606244 -1.3330624487834737 0.6056237075706695
H -0.24857755640143678 -1.5785278232848303 -0.9602434950154884
H 0.010464335107814693 0.06832240602763787 -1.5789090785262285
H -0.8534239548772422 -0.7399082348643488 1.2744482618479376
H -2.3136956640467927 -0.7996600309422048 -0.9662437875152272
H -3.004011000335293 -0.25636697161970773 0.6077495132169778
H -2.34250055421239 1.8777737000530816 -0.03702985091357013
