18

C 2.6789093612666375 0.5551459294827346 0.41164377971888233
C 1.198065845620761 0.43655952081429344 0.5536636198893359
C 0.5583300121989081 -0.271714217005389 -0.6257490053778002
C -0.9518741792008069 -0.366626984852731 -0.43146272521158635
C -1.300826453569366 -1.1305723069076665 0.8118606353832329
O -1.5075555040381357 0.9093717680799396 -0.3050744459062502
O -2.3915749625984883 1.0653631287105005 -1.254342923621678
H 3.0086245313534477 1.590887660388905 0.4961030171881263
H 3.1060836072948566 -0.0056967357279816685 -0.42064908018148883
H 0.9317366478490122 -0.15186907982622985 1.4716812204789829
H 0.7721968223014954 1.4480701162808465 0.705955968614234
H 0.8000039740335289 0.276528245056289 -1.5483137042577935
H 0.9562424278628044 -1.3047068728576419 -0.653489308439233
H -1.3952194171924597 -0.9078384160033955 -1.2880329093255836
H -2.067578764931572 -1.9235613796160567 0.6223240767304913
H -1.774449873623019 -0.47250178582663754 1.5958948413103027
H -0.412197697101257 -1.6639903602927961 1.2026298286146597
H -2.2089163775263745 1.9171517701030023 -1.7069642189726535
