18

C 2.112194487158992 -0.524729681877882 -0.8362332794611641
C 1.555979249603025 -0.034602905071312404 0.48445771125227277
C 0.1296042921860929 0.45950324356489475 0.33408329302000056
C -0.7391445048126921 -0.6861583981844532 -0.1698693408992025
C -2.162564051386107 -0.28242511711289925 -0.34557689593228663
O -0.27983289844788317 0.8935297893187465 1.5903249062826665
O -0.5971222430339954 2.1628812410487277 1.5588101371625853
H 1.8126503421772489 -1.5665118912298355 -1.0486273731592168
H 1.8689067248347548 0.14030422231934345 -1.6789959362531373
H 3.218425693798266 -0.5266862941458186 -0.7406659306484499
H 1.5346568584037583 -0.8900171879173903 1.1892633334717144
H 0.07650101132585624 1.323865191400985 -0.3741833567267628
H -0.2968017454116864 -1.0992418486526851 -1.0853383550501199
H -0.681251706444175 -1.48798774758031 0.6141869082046292
H -2.327748405583052 0.7833505430385164 -0.49814747138419696
H -2.781679848383723 -0.587236723536478 0.5481253206085578
H -2.6224837518558894 -0.8451006689188111 -1.2026073276114009
H 0.179710495871224 2.767264233536643 1.6609936571235122
