16

C 1.1365421279582855 0.9378168389279813 0.7966966297824277
C 1.337004652973522 -0.27595835088287773 -0.038287043206635715
C 0.23243326322638097 -0.5185615802349692 -1.0220204279507543
C -1.0887253936029389 -0.7190989552683276 -0.34353317957712554
C -1.4782446903391586 0.4876406797619685 0.4354708260145349
H 1.6459022347914507 1.7885335495706183 0.33688189260048196
H 1.4281629900160784 0.7604125244670545 1.8521453282678315
H 2.3061064628648245 -0.16626297582112365 -0.5691674666476597
H 1.4444438841607414 -1.1814487892274215 0.6202641644438722
H 0.2062497250357793 0.35074087770868095 -1.7205900750757182
H 0.5279975492408168 -1.38444414858274 -1.6513603523174467
H -1.8774957864193218 -1.023943807742582 -1.0789180535949172
H -0.9933813854046506 -1.579946692426487 0.3842878451052468
H -1.1268114804408553 0.4388342226252585 1.5009067195605899
H -2.596138339738239 0.6312751598120624 0.45593638531658415
H -1.1040458143226772 1.4544114473129046 0.04128680727868656
