19

C 2.5568747391100963 -0.22313228233794238 -0.3733377920119062
C 1.1637059867538637 -0.29015076399572887 0.21603411617396664
C 0.16334677305361553 0.23427623488262547 -0.7994424390633058
C -1.2380037309014764 0.19895210382405393 -0.28794805269615453
C -1.7079731651486456 -1.1789681775827254 0.07372988839539754
O -1.2841476506161944 0.9729770935978398 0.8766022056537043
O -2.1081673387816737 1.9889375163362601 0.7099263829019132
H 3.23435449618081 -0.7439301490528414 0.3554356423575087
H 2.908718110679243 0.8181387264254361 -0.41450867692666554
H 2.5938180051916855 -0.6835899406840834 -1.3803592705497936
H 1.1759702660059093 0.3534952476374606 1.1194178665409333
H 0.8845677910806976 -1.2967078040179896 0.5365174863163308
H 0.3084250180652603 -0.26338433997427174 -1.7755374391427485
H 0.4315744760100899 1.3102315457188725 -0.9564640178090951
H -1.8985031117487414 0.6281521864437445 -1.0531096728402192
H -1.3792140635234487 -1.9447505713341375 -0.6657252464494251
H -2.826064872582078 -1.160826899202606 0.057243860858362125
H -1.3807920675560101 -1.395940931485168 1.0957143675558627
H -1.598489661273057 2.6762212048012084 0.20661709217711516
