16

C 2.0620850231341645 0.08596543697250479 0.5330683320006806
C 1.3770889714927892 -0.8698508997439462 -0.4215821041459945
C 0.009762545048651247 -0.29737523543135724 -0.7555622638794466
C -0.8277621379580377 -0.14226585172503403 0.49778801964488417
C -2.163084110565745 0.43469739001430024 0.037931374478704614
H 2.2142954475346803 -0.4160679341309443 1.5315348081055302
H 3.063396828894533 0.35352409067752205 0.10529425737112297
H 1.5005745832738406 1.0262650747027877 0.6148076934617132
H 1.936182263142101 -0.9957739276697253 -1.359514412084136
H 0.11489867075371679 0.7126958062616026 -1.2299040972569943
H -0.5556887324322899 -0.960825510316917 -1.4391647793375357
H -0.3742720085878333 0.5158497417899681 1.2431638456034741
H -1.0015794213996458 -1.1427081208944578 0.952345171405376
H -2.0210390382221406 1.5169735678790657 -0.15822102907088528
H -2.390355067312873 -0.050050239739498764 -0.9408886583653125
H -2.944503816795964 0.22894661135412767 0.7889038420688106
