19

C 1.6787752842941428 -0.35098112381967944 0.4930481443177017
O 1.2443563273949652 0.8778393298470124 0.9204439369708897
O 2.181975939151576 1.7032961492156538 1.2491926729161327
C 0.5453586893594294 -1.2481437554639647 0.13221483870806333
C -0.3473892603038095 -0.780810610332761 -0.957521309703676
C -1.051142249642812 0.5129198872533071 -0.732481783485577
O -1.8624797854564776 0.8191027690261586 -1.853099842319022
C -1.9783139791575097 0.4968876039243575 0.4562436195752292
H 2.455289386447453 -0.28609225567804014 -0.3106384748200371
H 2.1959031957596555 -0.8322165391523467 1.3725845926193885
H 1.944743401592071 2.0792423564141758 2.150136500680771
H 0.9809165069193769 -2.2303250702817956 -0.21857215376150144
H -0.03342126098250089 -1.4393050058662236 1.077270387128285
H 0.25921753353282967 -0.689145556391038 -1.8876394664078757
H -1.1144150958744854 -1.5594664832261544 -1.1861525985065033
H -0.3749322370864838 1.3919305647591336 -0.6465008596903186
H -1.6984111764267622 -0.2732622948080574 1.1995280794958272
H -1.9921396840964714 1.52047333404168 0.9190501907557963
H -3.0338915354241274 0.28805670053854443 0.14661162847675857
