20

C 1.8311456602846823 -1.0050756630227655 -0.4909238459423973
C 1.036117319067973 0.24277912257528841 -0.8081142440707891
C 0.2596819464161652 0.62020014811302 0.4101810538442682
C -0.7032989937944617 -0.4902236728342315 0.8363860399233276
C -1.6937084268529385 -0.7999201069307155 -0.2430557282154671
O -2.4564803062919953 0.3267438722514585 -0.5572732481556001
O -3.324448279295145 0.0829443361865003 -1.4917731839524604
O -0.3749063709578064 1.8328024323422507 0.3296823455545276
O 0.01701370996349805 2.7086651797235675 1.2030143059641898
H 1.359260770609886 -1.9169350266150642 -0.9423496764649505
H 2.8484094042718575 -0.9287353764275411 -0.9190165055968061
H 1.9268507000813215 -1.1328612781079497 0.6134183243471673
H 0.4319988990813046 0.10189790692798337 -1.7079200645304269
H 1.7615645456159696 1.0444355457314136 -1.012704224421679
H 0.9991800939252281 0.6942211397835717 1.257457839380094
H -0.10837091768047008 -1.4100430648437228 1.039752725318284
H -1.2633507430780304 -0.16595135140034398 1.7276400963972793
H -2.3393073503705057 -1.6191106234526955 0.12093212760627213
H -1.1952880302191153 -1.1179739135416793 -1.1666205870824453
H 0.9879363692225528 2.93214039354163 1.142827905542992
