19

C 1.3353753148255931 1.402718805267801 -0.06374661284051987
C 1.1044695666104194 -0.0742749478326756 -0.07393167794760029
O 1.9727912862378 -0.6899431590630486 -0.9748666852057462
O 2.799234273823865 -1.5007454012707198 -0.3899304675629395
C -0.2834570702611655 -0.4928728876259301 -0.40447812176628095
C -1.2903105416301848 0.05980002329307596 0.5832891610241371
O -0.9283768565550512 -0.44124810694365924 1.834905245328269
C -2.6941442531175412 -0.2589671683155509 0.22277778293886313
H 1.2550126988123531 1.8499786441137835 0.9561987384585033
H 2.357486035094617 1.6165018710794647 -0.441342186116386
H 0.6395058844012694 1.9707101265715974 -0.7115944107844616
H 1.3689143675753 -0.4626163224755338 0.9383447935350192
H 3.7044182818254896 -1.3352376757397855 -0.7812024164309576
H -0.31938445152637684 -1.6039866934076836 -0.29505247532911133
H -0.5447267049117913 -0.2596073295959082 -1.4483057503666046
H -1.1705777020621166 1.15850061192569 0.5837642957522167
H -3.2127920536665444 -0.6301211845406364 1.1438740409093757
H -3.278565563057957 0.6584078280321582 -0.07052144324735612
H -2.8148725124180194 -0.9669970334724567 -0.6081818103484211
