19

C -1.5016272431538187 -0.7108204938003608 0.5928476707556989
C -0.7932037536681039 0.5311347089492048 0.1385481249547184
O -1.737619682213289 1.4973399703682273 -0.13075578002327984
O -1.6359079303159765 2.5553062135663422 0.6402418971964557
C 0.07175373286564314 0.31765804152712157 -1.0621322878730106
O 0.6744351530279686 1.5298939427868432 -1.3904849873684517
C 1.0672641915884638 -0.7936802433604699 -0.893314885686902
C 2.0226562155178276 -0.5848500360628113 0.23687359411055198
H -2.6082760425224922 -0.5365695992151631 0.7265731850353052
H -1.151506678289285 -1.0636021378226381 1.599419653150286
H -1.4200471154583287 -1.5542875943298702 -0.1225764601160504
H -0.11056002719019864 0.8425068120522334 0.9781985745833286
H -1.4373945657523028 2.267727981121108 1.5844872398605492
H -0.594673625955288 0.032109665044735385 -1.9070779282811776
H 0.519502787623904 -1.7291270271603827 -0.7294575334103928
H 1.6766744595648941 -0.8246145677484602 -1.8360151860467935
H 1.5550840666047832 -0.3167286066636621 1.1886940722629733
H 2.8663897717459266 0.112631381496111 -0.02646995388226196
H 2.5370562859795696 -1.5720284107481455 0.4124009907784383
