17

C 2.5540889505080777 0.5278723132451438 0.29078467978297834
C 1.3113677033771616 -0.1502907096737358 -0.26178696224761205
C 0.04662443517501851 0.5546467842988816 0.21817058442845383
C -1.1087999244763045 -0.22772209600439935 -0.40920288708106783
C -2.440784807877867 0.3700895847174287 -0.011867305132103028
O -0.99283285927249 -1.5607976075221186 -0.09841643426871716
H 2.5688172866346237 1.5791654217809439 -0.096407351712103
H 3.4175610478230567 -0.047690354643958835 -0.10324064672415287
H 2.568857884968117 0.49418778472701347 1.386670039251658
H 1.3946039662290726 -0.10901365693951384 -1.367662058959096
H 1.2908219147400672 -1.2141507978844608 0.05085124612337149
H 0.0344512494849847 0.4239851153751064 1.338143039202883
H -1.0086327163966182 -0.05101223109946432 -1.513548844713476
H -3.22417945601162 -0.23769584505945443 -0.4874690971159014
H -2.487162047790598 1.3892568830624346 -0.4469674160872889
H -2.586798400941381 0.37366943750781445 1.090800580394281
H -1.3380042261732854 -2.1145000258876516 -0.8430887471404296
