20

C -2.2928197887607222 -1.211154246753956 -0.0003479821914061405
C -1.363101737292472 -0.039487743247164066 0.3477538225073012
C 0.016888790468623096 -0.46083099317695286 -0.032940471532391914
C 1.058618574229964 0.5928383431837645 0.24949385543669345
C 2.4318416979405266 0.10068058980160428 -0.15957268954130763
O 3.3695953711659894 1.0944703288692608 0.11349830106979178
O 4.568887965129858 0.7160181424716842 -0.22235563154066368
O -1.521622437812974 0.24378645479934477 1.6816930403898673
O -2.0410135238425986 1.4490577282039712 1.7884918545199997
H -3.300677870322707 -0.7901819649747178 -0.16584500431595461
H -1.9330265845610184 -1.625565826147033 -0.94551041957625
H -2.2572173658063677 -1.9171894797001992 0.852340615485621
H -1.7039188851762317 0.7972352337470503 -0.2965219884011606
H 0.30077244576786516 -1.4234155514616413 0.4312099136049349
H 0.021346966223631112 -0.6159892319996504 -1.1424237147960055
H 1.1243732455678002 0.8479846824185976 1.3268738977092605
H 0.8401575439741945 1.477717447700577 -0.3792557875620482
H 2.4442610966611578 -0.153072412395291 -1.2416383884677964
H 2.7194684557903037 -0.8321524288969331 0.3753049808096233
H -2.4828139593447145 1.7492509275575352 0.9561713272907738
