16

C 0.3600770810163253 -1.1694953837322715 -0.007965711164823648
C 1.3586420310650884 -0.09952567973141728 -0.23789967130271322
C 0.666724014106575 1.2344619220989583 -0.4885088586922722
O -0.252173434148878 1.4988232403161064 0.5498001219265404
C -1.3474811022539317 0.6478206295284171 0.2897050859702169
C -0.8909314882778677 -0.7449854785086982 0.6716712035598251
H 0.8457175665603779 -1.967405490745823 0.6135881874974298
H 0.08852089562904433 -1.6171881504921415 -0.9974756995333997
H 2.1384856703148567 -0.01205846251007631 0.5511763723079678
H 1.9299395506793413 -0.3153365751615396 -1.1831618245268603
H 1.3928824423459278 2.0479561257710936 -0.5990509079059386
H 0.06527919042598503 1.0789480178706385 -1.4263918328982674
H -2.226947417091238 0.9084204025282585 0.8942968296121306
H -1.6118867985211436 0.6914786333835514 -0.7787689336018013
H -1.7083832377788346 -1.4415860142403125 0.35617523335754797
H -0.8084649640716275 -0.7403277363747304 1.7928104053944136
