19

C 2.057096412224287 0.7383508032693046 -0.5978615327990193
C 0.8225964299315078 -0.0020425628941494758 -0.09695224773074744
O 1.1328960720189967 -0.46108180849891045 1.18649962118262
O 1.1508723177355618 -1.7653014860492044 1.2542373998904324
C -0.29749908411570464 0.980150988004888 -0.04622415115832186
C -1.593678645866688 0.36849454129713916 0.4391812510621374
C -2.0244099128690034 -0.7666342330325279 -0.49142741242276583
O -3.226649435168614 -1.2748144835147546 0.028132005955894667
H 2.841135497530952 0.05794034933891032 -0.9456358124699312
H 1.739943421678906 1.4577000284179893 -1.3608643496336568
H 2.496594678999304 1.3117681090541966 0.26300759021186937
H 0.6577474365622341 -0.8413984830746658 -0.7859795895557325
H 1.9728394018237203 -2.1142668607599484 1.7105688570497146
H -0.02828465745167425 1.7778809075188147 0.676131484744345
H -0.4428579554322655 1.4376842918585215 -1.0419519522309995
H -1.4835642025411002 -0.03937005190156352 1.446744725162454
H -2.4043361501590583 1.1225627431222707 0.3959003926701241
H -1.2325899768602053 -1.5597524889784016 -0.5072331006024979
H -2.1378516480410337 -0.4278703031779234 -1.5262731793259463
