11

C -0.8619577465675976 -0.5033808888312237 0.4595388230177054
O -1.918725887231472 -0.6962973962940514 -0.4221704182163093
C -0.44382946271041945 0.9139858337242905 0.5122485038324274
C 0.8245567131311775 0.9800956588981191 0.13869781530195516
C 1.330631721706346 -0.3464872640373213 -0.18082835211032425
C 0.3559305899179626 -1.2229898062167197 0.0021833288103044624
H -2.3185709597132074 0.15070118996453824 -0.741923109581067
H -1.0914696707143798 1.729829424020477 0.8100464565876644
H 1.4208022264517426 1.8810355528022376 0.07270597555743327
H 2.3378642878474443 -0.5798647389560803 -0.5134813214043269
H 0.36476818788240456 -2.3066275650742765 -0.13701770179544998
