10

C 0.6797377096484886 -0.9848220369706934 -0.04178929292683067
O 1.368137881839492 -2.0464722167350433 -0.08866090472888155
C 1.1295798193998163 0.39504308860903914 0.07434091775310625
C 0.06987673961846008 1.179343637036452 0.08633194622004926
C -1.1287846871092635 0.363328356747425 -0.0206397147348558
C -0.7732897772245585 -0.9058338829159704 -0.09586067410190315
H 2.176393408972718 0.7064042593484732 0.13937126396805172
H 0.12074622655101597 2.278554762108121 0.16621631229249162
H -2.1586862829250997 0.7535681002650855 -0.03532249190444194
H -1.4837110387710675 -1.7391140674928736 -0.18398736183677347
