10

C -0.9562917772118452 -0.8216607121474644 -0.17149333652096443
C -1.0290261997257673 0.6629743367735381 -0.1245149950775689
C 0.19594534733624006 1.1317004462154083 -0.03894660383388277
C 1.1622288610268152 0.019807978250140076 -0.022448239939996974
C 0.4961017796098193 -1.1214515086434438 -0.09948836221389601
H -1.5252647879006793 -1.2779786010951926 0.6706135723050388
H -1.9454923012817318 1.237148297214356 -0.15669065718164477
H 0.45771385433020306 2.1793700469739226 0.011942928177009333
H 2.2507586513254574 0.11764099143815794 0.04261962390740806
H 0.8933265724914972 -2.1275512749794165 -0.11159392962150427
