11

C -0.11835401884454107 -1.0872240075114563 -0.05596692749013391
C -1.1668911624372047 -0.0644124954342356 0.08027857508678077
C -0.5948600308327987 1.1209425300051203 0.12680897398055843
C 0.8420455976153992 0.9360090900716267 0.02445033461015404
C 1.1405085022855204 -0.33665848584401703 -0.0823789252337733
H -0.24401614796753038 -1.5376338108085383 -1.0656710058916286
H -0.15389394731775285 -1.8512530502880429 0.7472619175198941
H -2.2659575996612853 -0.2456725774187229 0.13619316807545834
H -1.1642026960859422 2.0445467157086017 0.22631352099582752
H 1.5676378263650226 1.762986649853866 0.036565749003542786
H 2.1579836768811074 -0.7416305583342275 -0.17385538065666217
