20

C -1.4203059277384316 1.6077212839453974 0.47297776325142743
C -1.6871509777260996 0.16603451863333343 0.027826092899893465
C -0.46013498331809477 -0.6224414222454325 0.3229963056832239
C 0.7028139803299903 -0.02543091116683534 -0.4481017027275525
C 1.9835540353779146 -0.7856425946570362 -0.19042418320064827
O 2.9814079528806965 -0.1537943931464687 -0.9454802996130145
O 4.154276807705568 -0.7510037253079466 -0.7869666016570521
O -2.041779251702051 0.20779038225337634 -1.2920142467571838
O -3.2464419524549744 -0.17444908861735567 -1.5628765863731156
H -2.3649446884863368 2.1641692494909663 0.6325934305189345
H -0.8689759042746665 2.0796202921531517 -0.3683482944466115
H -0.7798624429006988 1.6183580046833108 1.384104826229382
H -2.556810023265216 -0.2096959143062301 0.633184514896375
H -0.5388943678084254 -1.6990936597180644 0.19752422751098725
H -0.21114072144238055 -0.4506647408056193 1.4109752408715168
H 0.8876494021036999 1.020655176787871 -0.13151739047507488
H 1.9196009621923786 -1.8220392699244212 -0.5741238362278677
H 2.2927201745312247 -0.741592549128814 0.8662418735621974
H 4.688821935861556 -0.3062163127190867 -0.07419807407383047
H -3.4344040098656192 -1.1222843262041426 -1.4341487026057838
