18

C 0.11890590049292732 -0.9136449362370018 0.05296085235719463
C 1.3623538243757858 -0.3353732423027057 -0.5591141633200364
O 2.1825912474462807 0.20138084456702243 0.45035902117869603
O 3.249569760081866 0.6908786107654294 -0.13815645148176978
C -0.7030215204218502 0.08463628217285081 0.8050473145297817
C -1.2146119614766895 1.2504375170112514 0.02138640358589363
O -2.4488086983454522 1.0873662731521117 0.6943698011332404
C -2.18628975984803 -0.2673420728074537 0.7156164600252874
H 0.44662780686123504 -1.6961109416895392 0.7764580356373403
H -0.5028771508621978 -1.3560450628304335 -0.7394266299006862
H 1.9368604941902627 -1.1741761345439372 -1.0033404806814932
H 1.1839297768887014 0.42136963745620654 -1.3259470436419338
H 4.0182404970391215 0.07311601138080545 -0.11377720706735218
H -0.3646251555818798 0.29593081833754054 1.8342334046238562
H -0.7451850228524156 2.224825986550848 0.1959912225418034
H -1.3773972440241038 0.9646616422088395 -1.0394781369745525
H -2.574962435085297 -0.8299790498081188 1.5777098759888546
H -2.3813003588782706 -0.7219321833837199 -0.2832647561609206
