20

C -1.4777540507588616 -1.2348920886884653 0.25581583241026934
C -0.682883790499247 0.06049887611007502 0.45400783917876925
C 0.5079451149245242 -0.014718974009759848 -0.4514659808030555
C 0.012774340375455558 -0.3526111716429422 -1.8463270421537132
C 1.389411837053939 1.184212326623807 -0.41529841019141583
O 1.2670309465223502 -1.12840265320444 -0.035059518761761284
O 1.6573072162411682 -1.000450086074913 1.2024760587623597
O -1.5374166583898738 1.100753424570583 0.1844002001611246
O -1.7561342991948956 1.776216016062932 1.2791844586316452
H -0.7028981856278141 -2.029419309069254 0.13179431690153354
H -2.1040246075056275 -1.1844398638714337 -0.6445797596597841
H -2.0433893879572325 -1.5047717561741025 1.1649389477597802
H -0.3919101764586612 0.05340856411391164 1.534304285902965
H -0.372820880921897 0.5287563660097108 -2.387320733261885
H 0.7106522529551935 -0.9677882196863629 -2.4157794328160356
H 1.7833351016864072 1.3952667012373214 -1.4462000746695527
H 2.302377907154733 1.0447868690742466 0.2189044888568377
H 0.9158847679536193 2.108772858439424 -0.07476154975137965
H 2.654341173381915 -1.0731065345418087 1.2749484699360714
H -2.131828620935206 1.2379286547214745 2.016017603567238
