17

C -2.5300409943771425 -0.5784029779144275 0.3617225551864137
C -1.4029931872114183 -0.9953672083093561 -0.2019862044163903
C -0.25207503963790523 -0.08094447154981842 -0.44072874029365366
C 1.0333648734477503 -0.7155489227313306 0.06000146432083358
C 2.202088948018108 0.1918737605211091 -0.17264371256441985
O -0.3881967062433697 1.1305075588547189 0.22275391134891045
O -0.34506117131875963 2.15634843595471 -0.5937126209283494
H -3.3403088171819673 -1.2502662126023982 0.5227395110239345
H -2.6472378007526887 0.4455124361872416 0.6668306097650607
H -1.2806729559226162 -2.027659841332872 -0.5112903827673112
H -0.13859385120092138 0.1439386762600481 -1.5259739588076997
H 1.1895811380694246 -1.636638122115156 -0.5594802412854103
H 0.9648020363292698 -0.9625749355254929 1.11948592125745
H 2.2691571793345875 0.5645619399276037 -1.2083188836826397
H 2.1767034552733047 1.0341014187479773 0.5719613788600608
H 3.131742990957079 -0.38224524295983603 0.0770506759046212
H -0.6422600975826995 2.962803708587241 -0.1351270676896907
