18

C -0.6968313926080358 1.0499668803759052 -0.2936810733351799
C -2.1342552102214474 0.6072448507156292 0.012106175943857487
O -2.0920770456134608 -0.7454948636609573 0.22277688482334174
C -0.8106359983141574 -1.1216246556899017 0.5274554783348491
C 0.03392222102148748 0.11698088796326996 0.6481746167956819
C 1.4624214962597712 -0.11570533521297575 0.24833587257042497
O 1.5399641810289153 -0.677256876608068 -1.0126232155085186
O 2.793645669671692 -0.8743378915466844 -1.3475069772689887
H -0.5476218459224174 2.107018887325561 -0.05499020097288914
H -0.4844090843924972 0.8174355514547272 -1.3598926983025124
H -2.8274068502976952 0.9365447336026919 -0.7760442982760883
H -2.373356679516433 1.0998221558713097 0.9942221599268001
H -0.4363680481280129 -1.7360927772130423 -0.3442432098009616
H -0.7278375751961079 -1.7942461483216092 1.4054400655509138
H -0.04051630996063469 0.5215572435114547 1.6663183654352518
H 1.9006607803619644 -0.8048656976472915 1.000240542871228
H 2.041944659554847 0.8044866566405097 0.25824436703179765
H 3.3987570322722904 -0.19143360156055203 -0.9289719766050829
