18

C -2.9696568457526715 -0.4630220361816305 -0.42207728761195723
C -1.838880911278444 0.51241025256344 -0.5031794696211765
C -0.4608257707848582 -0.14440055440006705 -0.5223343874119093
C 0.5464975929815508 0.5148032033736233 0.3563283427454406
C 1.876287687418885 -0.22702665787063034 0.25334741999130567
O 2.7490431310048784 0.4727973329968308 1.115295966779862
O 3.9041841525339214 -0.16965648303741762 1.026987162400735
O -0.9957750946940729 0.5171585005092701 -1.6109273430623294
H -3.8275421490307684 -0.20723477463580234 -1.0629478348176231
H -2.6781359988947 -1.49689636480657 -0.6478408545540986
H -3.3578677895365576 -0.4239072255462273 0.6318487736637696
H -1.9602703168391993 1.443954243588497 0.07105916799811471
H -0.38187910271788833 -1.2291543913555367 -0.6399075573440518
H 0.19406400036876884 0.406424932841525 1.4212407326019751
H 0.660071575950705 1.59947574491951 0.19678988238037146
H 2.237464890007983 -0.1489567327238986 -0.7821682345452032
H 1.7201356738000069 -1.2559048541718638 0.5965082038261957
H 4.583085275462429 0.3408368045549857 0.5219773165805938
