20

C -0.33438953821819983 -1.339796270258245 0.3950991609957315
C -0.4844524967641564 0.16799761418132667 0.2909104947354507
C 0.797914479598113 0.6996344141408104 -0.27345415072359525
C 1.9875469734104636 0.3606116567701857 0.6243541619970476
O 2.0610538373053253 -1.037895623583325 0.7170577072135144
O 3.0805134329974564 -1.364786531424638 1.4875829142797314
C -1.572993074147667 0.4188618950777567 -0.7365477201857608
O -2.7274318159406237 -0.1853957947118334 -0.27022171167038406
O -3.745632864953512 -0.033379355616006044 -1.083515287582268
H -1.151918396181805 -1.7288679678208683 1.0259944119484925
H -0.521187785284773 -1.7580225988951381 -0.6298609925118402
H -0.7505161548674593 0.6250461138373787 1.2649636891843996
H 0.7003152835572378 1.7793494907220788 -0.41639481814201657
H 0.9465025965358949 0.2248883422000644 -1.2647201373499775
H 1.8255285769525034 0.724548332320909 1.6545234004303127
H 2.907128842619661 0.7950600989091676 0.22691965838424233
H 3.930869347154801 -1.1338648240977653 1.0267691090230733
H -1.210080043857378 -0.01126993297803103 -1.6951930409757199
H -1.7686650925728877 1.4905313270640967 -0.889910658528129
H -3.970106107342931 -0.9113814737614861 -1.4543561905223108
