17

C -2.6585920942794434 0.641484809964433 -0.3723502294236612
C -1.7955049288886824 -0.5970938224606466 -0.43496614384039267
C -0.5336806472485975 -0.4218660728839527 0.3167212814286626
C 0.6299094360876409 -0.5249815300714392 -0.2923092012410773
C 1.9244193582642517 -0.356382058097101 0.42391589779682554
O 2.662276570964005 0.7019489643954828 -0.1191996659967189
O 3.783217419986755 0.7514671085241988 0.5967641221034735
H -3.736902607464727 0.3845237483546864 -0.4093299022790717
H -2.4793972007061544 1.2389031313767367 0.5424585779523928
H -2.456467316537984 1.235587131089474 -1.2992568417457762
H -2.3450130648343728 -1.4615332938814105 0.029292235646411185
H -1.5704730714002881 -0.9073429739614727 -1.465066416718333
H -0.5313765242291083 -0.2072456824446088 1.372380143701556
H 0.7164794004890721 -0.7426112589531436 -1.370494720599584
H 2.4814026180223223 -1.3044134402641854 0.32357678888418273
H 1.7297667128497762 -0.09120701786895201 1.4873796996490838
H 4.179935938925429 1.6607622571818987 0.5348227688100832
