18

C -2.2368825893541597 -1.004799667290036 0.17064052483065859
C -1.0186122162096878 -0.20349929726399324 -0.29299623596109126
C 0.3034344552754783 -0.5596892973095549 0.30303068902645125
C 1.3903716595947582 0.30276823313456414 -0.23930555614460294
O 2.641664561503839 -0.0240797500434187 0.29016912278360857
O 3.593238782899005 0.7194306011099391 -0.1741027916497011
C -1.220808851174996 1.1156252399129838 -0.848170889853992
O -1.042701228176689 0.031931257841048125 -1.7024417983924032
H -2.0382703878288795 -1.529503066813949 1.1275497347976244
H -3.0528720294281473 -0.2968806654226031 0.3484310256216324
H -2.4326268072598034 -1.7430166897764847 -0.6128623324772497
H 0.21062323959733012 -0.3618928104516976 1.4119080413186678
H 0.5129477921642788 -1.643768369438588 0.22436403170995306
H 1.2216463562965645 1.3704700391801097 0.09539240754896627
H 1.4743278847088856 0.2809096541690584 -1.3373528904604235
H 4.367105699351479 0.14213681191436536 -0.37273512117276414
H -0.42011713933241596 1.8741692224546858 -0.9078996909617344
H -2.2524691826268546 1.529688554093634 -0.8392882024034499
