20

C 2.39245668617285 -0.9518948157439853 -0.31611760929745875
C 1.2026735828602468 -0.030339194607134804 -0.14064889554751614
C -0.035137670734705896 -0.853845348469048 -0.3891327245315406
C -1.2372985148522972 0.036187416841808394 -0.18878667795895532
C -2.4727928813235533 -0.8158337724618622 -0.48363049699958693
O -1.2363785085450956 0.42442947384522706 1.1578250264392842
O -1.2310349682300965 1.7170249350178317 1.2299824563108541
O 1.2689596537180325 1.0655901259617524 -0.984391704660431
O 1.3912577408881133 2.1741329972850783 -0.30887882516488924
H 2.299986736714133 -1.731218333401125 0.47272573373191135
H 3.3117190394260074 -0.33490913398549793 -0.16527922069033177
H 2.3837801689134372 -1.4285534969628966 -1.3338271130888284
H 1.2140762018107885 0.2889217992068965 0.9154663450818507
H -0.12461874301715788 -1.6761407767356975 0.3492484958910128
H -1.1815678215506398 0.8582637293127675 -0.8990793397056088
H -3.210631419635989 -0.13260411412343553 -0.955393853604193
H -2.820718075440712 -1.2503593259233703 0.4609538897771717
H -2.188758717836263 -1.5639183251694342 -1.2511008368506984
H -1.7498114027506821 2.1037627231796665 0.4747596357903823
H 2.0238389134136017 2.101303436932468 0.4525166141635114
