15

C -0.8248181510467855 1.1636454951450754 0.06560770017977803
C -1.336939627610374 -0.2064527043111009 -0.1841156622529925
C -0.2879050432769672 -1.1716251751989493 -0.6868809033385076
C 0.8514169280763497 -1.096658874988961 0.329818988764569
C 1.3344027730728787 0.3506362561875126 0.2747862379009036
O 0.38669308609569236 1.245047989259039 0.687002315324144
H -0.8597352607412154 1.7311286114999889 -0.9054314918870379
H -1.575028030474542 1.683195451579679 0.7343089309800044
H -2.1176602970380465 -0.15095557662551887 -0.9769839648716608
H -1.7758940846433375 -0.6735998009675613 0.7312466180432939
H 0.1313327917882885 -0.7074401028606843 -1.6214378956405453
H 1.6711056429403077 -1.7367458862429541 0.009947770185265705
H 0.523635749278117 -1.381887135643411 1.3395140085440183
H 1.675920214397797 0.5217948376344996 -0.7706087188432305
H 2.203473309181861 0.4299166155333509 0.9732260669119949
