18

C 2.710520845454744 -0.44934083952357834 0.4810168937467922
C 1.2901529324788004 -0.5617601051261933 0.04281336237854398
C 0.2844920663048916 0.4390015052321036 0.19608545886397594
C -1.1477850712865743 0.059198199056984695 -0.13251202418615268
C -1.636047630784644 1.1054580148653361 -1.1397168846266277
O -1.9389446838930655 0.03557150902503505 0.9935608136947328
O -2.5475518034357916 -1.1330547570645104 1.1473634589129944
O 1.0593017192257013 0.44036044381421446 -1.059125442158038
H 2.828877305528535 -0.9013531431308884 1.4811755632317012
H 3.089307582738795 0.5920619740806272 0.45574215583991096
H 3.325886473748868 -1.087084221555524 -0.20960743982872132
H 0.9797512898265944 -1.5808116618132595 -0.3028648861230763
H 0.4311306951096231 1.3933294773082787 0.7100603346768256
H -1.2107095292916492 -0.9141456343860123 -0.6441687845661752
H -2.669209212215874 0.9268323737457118 -1.4409556305489475
H -1.467350192363908 2.0876989342739454 -0.6514744261994961
H -0.9276249471656112 1.0322190774944349 -1.9984898182967465
H -2.4541978399794453 -1.4841811462967223 2.071097295188475
