18

C 1.5319616727208512 -0.8666881288406365 -0.6719389990426535
C 0.5402576795028171 0.022925154192014876 0.03320649036032692
C -0.4960845557253215 0.6036793787488917 -0.867761764946455
C -1.7812495490231406 -0.08364810628252689 -0.4011335534288174
O -1.2617908940026308 -1.3175455964817444 0.028268927025554762
C -0.29992180646437766 -0.8656333282925661 0.9519861401413401
O 1.2219965262593198 0.9397616707652695 0.7959239073453674
O 0.47061182330945117 1.766322141532419 1.4546081063470802
H 2.1319450808317058 -1.3657155904833336 0.1445419646195722
H 2.2510952667378232 -0.2736304347052195 -1.2455421656423376
H 1.0284231127600776 -1.6591223299351066 -1.2476155705981673
H -0.3775435932776947 0.3446512810365428 -1.9347642215751228
H -0.600830451016696 1.6885063220877516 -0.6800580718021975
H -2.513321235884961 -0.18190134837587796 -1.1983405892861805
H -2.16804491284122 0.48564253466589136 0.4828344360845315
H 0.2973797009036567 -1.6779962888229047 1.3737609751585702
H -0.8156012987001452 -0.24324067722413897 1.689625596187861
H 0.8407174339104986 2.683633346415268 1.292398393051715
