18

C -0.9927366208493519 -1.2276828945487515 -0.4457405577190789
C -0.7833993318897523 -0.044951524436381944 0.44612661546845706
C 0.6416326879376038 0.43788866313042624 0.43494914081119745
C 1.183138562967381 0.8772034932991217 -0.8901620325002474
O 2.4279856636288666 0.35518849395867774 -0.46395713413722584
C 1.6649321742924301 -0.6684521712776528 0.14788958742804503
O -1.6328815295796997 0.9677120127223047 0.028318524456378297
O -2.48078709307037 1.333585276896424 0.9534130716318234
H -2.09426884757561 -1.4645054043658101 -0.41632725516448504
H -0.7724153021247852 -0.9952089496884702 -1.4990452108156784
H -0.48624931439396024 -2.1207327690971294 -0.06263408813790722
H -1.0205360320150763 -0.3194184670287964 1.4889718225399382
H 0.9391690878374244 1.08625143109753 1.2539032674883333
H 0.8386961127102227 0.2350489183377215 -1.7428868979441228
H 1.2077845992171947 1.9492305571660904 -1.0936798110336763
H 2.1121812159738513 -1.1099255649916464 1.0358091244835372
H 1.311401079532337 -1.350992440248664 -0.6449472461399052
H -2.063647112598536 2.059761339075497 1.4699990792847675
