15

C -2.311906756325602 -0.31415218274157364 -0.24713734525342315
C -1.0515331318434338 0.32058801420822036 -0.7775654086078778
C 0.18110554787585223 -0.14306147808055444 -0.08444256687734297
C 1.4875792529989698 0.3726319730578381 -0.47579205360425075
O 1.0675083743446585 -0.8294226961537549 -1.0573867265788206
C 2.654843686522503 0.21144962018839794 0.4582488680596697
H -2.061494499513564 -1.0852424566157026 0.533415156402951
H -2.870927914530619 -0.85892122069603 -1.0349777313720798
H -3.012284337596492 0.44189264347156904 0.163297871175934
H -1.1667025244631413 1.4242051497284567 -0.6440178046605124
H -0.9931100987140927 0.06097122646691096 -1.8482262583768314
H 0.027920731280332275 -0.8435995361512494 0.755020240482616
H 1.5199612985805744 1.2912912305891706 -1.078865413313171
H 3.526334583492343 0.7958069653411035 0.1051504573133712
H 3.0027057878917613 -0.8444372526127978 0.5315442424900754
