14

C 2.22076064789535 0.4818689711129127 -0.33913269173579325
C 1.6018180285909531 -0.44459098132034686 0.3613122158145135
C 0.17116528856350247 -0.5186367569897322 0.4161723401429709
C -0.6098040001831646 0.17604387070996017 -0.6212765325394898
C -2.104231182372529 0.021112670127460643 -0.4534563972804824
H 1.662398205682665 1.2137138582882259 -0.8932933328781768
H 3.293453946197673 0.5148780388830617 -0.36322253840863505
H 2.1939151789480467 -1.1740621523042813 0.9136710156007027
H -0.3075108986276736 -1.2514334201161834 1.0210426675329056
H -0.35304701382079456 1.2658706182134805 -0.5920632866202434
H -0.30058782960028424 -0.19954319714729418 -1.6227040382199682
H -2.3937265472482716 -0.2316601005446055 0.5843275062576762
H -2.587502387534312 0.9626729817415737 -0.7951337014304252
H -2.4871014364911033 -0.8162344006542349 -1.0922117635996733
