18

C -0.033703274264158825 -1.5274450151669654 0.098049330733499
C -0.19261563496757608 -0.05028520102943323 -0.11523190277203917
C -1.2457394559551076 0.6226641333877732 0.7323037331619281
C -2.103054349072826 0.048861306394606646 -0.3754280985528215
O -0.9718498550412379 0.2122155237720503 -1.2128074179844925
C 1.1107271790295556 0.6691989610216996 -0.0069892406208766885
O 1.9499645661324598 0.3917947336567634 -1.085022408509813
O 3.078431862828402 1.0590779571070856 -0.9226396481586159
H -0.7945127646239052 -1.9707949887108707 0.7518664415073644
H -0.07286039054831547 -2.081032397503569 -0.8790070125046995
H 0.9777267016369972 -1.7577430143732349 0.514584348898917
H -1.1793112603205362 1.7069167016801086 0.6295289458830554
H -1.3495075325958414 0.18529990979963373 1.7148645354947294
H -2.3697775451423198 -1.0329946599498072 -0.22115374317066136
H -2.9389568708525258 0.7178676745890715 -0.6004259297054311
H 0.9891297503427148 1.7473789727311928 0.1571453046385727
H 1.6351948043798048 0.2731653673724351 0.898538491315632
H 3.510714069034443 0.7858540352214407 -0.07817572965423596
