14

C -2.4088308084359293 0.6138611228963441 0.19547393733612334
C -1.4317023137076996 -0.48138681084878565 -0.08902570113607917
C -0.043866670402479456 0.01688553808809525 -0.28721459012874456
C 0.9525133659299337 -0.3624958310461912 0.47709850195758274
C 2.310770484572898 0.15575260666173335 0.24548078048353378
H -3.1653207270551658 0.2488273489952391 0.8995607386605624
H -1.924547928785435 1.556512741751974 0.4943049685261854
H -1.4799496556480936 -1.2410122593971715 0.7094018310347244
H -1.7609520303674382 -0.9861688586123727 -1.0336609986271288
H 0.14302876667061556 0.7159536100088872 -1.091180696908716
H 0.7752244377866617 -1.0558261535569666 1.2769017902467854
H 2.383710562271219 1.257595333922919 0.33725704631462533
H 2.5647119024727303 -0.06662935549147708 -0.8319902088735466
H 3.085210614698154 -0.371869033372228 0.835839737269464
