20

C -0.8690570694049692 -1.3513032542163992 0.23636206284794228
C -0.8812736069659906 0.13042320526778056 0.08822246479118166
C -1.2739498806182712 0.43111300818192844 -1.3558941347539288
C 0.37232358287926287 0.820415115652645 0.49494228612099445
C 1.5928869284277856 0.425620353106041 -0.2473073827263763
O 2.2192622454497366 -0.6365417914786683 0.38699141551734373
O 3.3125818762854524 -1.0230350800147936 -0.2397603855068402
O -1.9147520895525434 0.6739646507183265 0.8871116783114474
O -1.7272500943793745 0.3727804451187635 2.15430352108835
H -0.1310413316690644 -1.7285884158362559 0.969180964283075
H -1.871608484282049 -1.6777891869919306 0.613916583878482
H -0.7682556479408205 -1.8793387652938374 -0.7581050189202171
H -0.7649239249513332 1.3425959447428217 -1.6708106735139385
H -1.0497975520379137 -0.45033627438328333 -2.016769384795299
H -2.38237086906933 0.5688991788216169 -1.4292175117900976
H 0.20780681704012394 1.9093982450080038 0.4342641618658914
H 1.4319846996065655 0.26593912749870363 -1.322731896634783
H 2.3221475605771817 1.2866202178396589 -0.17953991930925775
H 4.087400812909688 -0.6974272536489007 0.29550630039131354
H -1.9121139723040752 1.2165905299077828 2.6593348688547027
