20

C 0.3213122932850221 2.120115713439571 0.125870238266488
C -0.6311666512756853 1.0914722794892078 -0.40223620322851295
C -0.3531310124006931 -0.2942256975675978 0.09170602527222382
C -1.4108343181264156 -1.2082891076709594 -0.5407573800268385
C 0.9704556064253513 -0.839915100765808 -0.3216106937134996
O 2.044791218235713 -0.13859905835474556 0.21315507195751734
O 3.1698018712258613 -0.670561566719576 -0.1899621048529536
O -0.4411133848124365 -0.3587923505198466 1.4758365681332524
O -1.646143013224893 -0.012431659780590147 1.8291977596948568
H 1.1227094809071287 2.344956495512135 -0.6226353697203622
H -0.21004855568136288 3.0900356887908913 0.27951419277189277
H -0.71180019929602 1.0961543985871711 -1.50779229797754
H -1.6452070397206033 1.374818302100894 -0.024872554436151818
H -1.3343332657142213 -2.2205879876686323 -0.11731773414438142
H -1.1787250372891633 -1.2069507609456762 -1.6354713249681818
H -2.397604339322398 -0.7407996126520418 -0.4322817119895469
H 1.0417599240618087 -1.8810655898278292 0.05613626654114428
H 1.0747438222872736 -0.8845514057395035 -1.4109108271486415
H 3.9509715765904785 -0.4062213058257896 0.33337059444414685
H -1.7364389761547523 -0.25456167388126666 2.8010614851251354
