18

C 2.1833334994502946 0.012012164462121352 0.20765035299512524
C 0.894675072113362 -0.5923689172358758 0.6761480947732861
C -0.16927182106588726 -0.4616935853817409 -0.41998850802296767
C -0.29833171119381885 0.8596407956987199 0.26830398269242095
C -1.676338669357606 1.435189264855459 0.2259081155092734
O 0.0832716247923151 0.24195297952465525 1.4478035833673601
O -1.245091020852525 -1.3024755405969617 -0.2127374410365611
O -1.4505161365091237 -1.9659324387830002 -1.3340043355779818
H 2.690800917012395 0.6068285445058074 0.9754030224715375
H 2.892485441043729 -0.8321354302049537 -0.039367446225121096
H 2.07711122284331 0.5745294065553952 -0.755443146459677
H 0.9488203659354211 -1.6340472423225954 0.9893838020125666
H 0.29935699200670807 -0.48224267232708834 -1.4030019148485793
H 0.4463910791926988 1.6127688594100533 -0.03452182562285501
H -2.439620897659889 0.8480225308185446 0.7512679587804335
H -1.695812279784965 2.4594016209640523 0.6508482351116388
H -1.9600132123890495 1.5595218825772863 -0.8564370935291199
H -1.5812504655773463 -2.9389722225198844 -1.1372154363907945
