16

C -1.068112772925565 -0.9307013235842503 0.25220201276378584
C 0.1997554573989869 -0.5665447457320848 -0.47961589389465714
C 1.0444013150437776 0.36345907852457937 0.34921855260234286
C 2.3142350570251025 0.7996726330477039 -0.246847761981828
O 1.2424727734903296 1.66683731836047 -0.05719367547626636
C -1.9177477311103333 0.26576543719340173 0.577935396038862
O -3.049932709400539 -0.1981175261664746 1.2472765839132143
H -1.6841966555647898 -1.5829670671148146 -0.4237268679249052
H -0.8720268933475207 -1.5314763773019926 1.1500028911364897
H 0.007882308517675624 -0.19969007574500333 -1.4904066417137243
H 0.7842738929652932 -1.517990130112031 -0.5825953625460886
H 0.9823218351356265 0.24751932978823848 1.451843161699094
H 3.195317883535078 0.8725281259915816 0.41342883270354536
H 2.508622440943923 0.5754139117360353 -1.3222430648432437
H -2.2683337518597315 0.7498970833766659 -0.3674279177512041
H -1.4189324498472726 0.9863943277379871 1.2455270544542614
