18

C -1.8866421254943764 1.3206080737804542 0.10082359721307134
C -1.495532846639466 -0.11663611599269055 -0.1324593653798757
C -0.10880433667379072 -0.5797194147140127 -0.03698742753134544
C 0.170728384845 -1.9143371369443187 -0.6973872809385807
C 1.024955212862354 0.4176260411112617 -0.0703320224846654
O 1.957777243582253 0.16359099765173724 0.9646790741448856
O 2.8861290449970696 1.107547101255409 0.8096005449224809
O -0.8987130021145597 -0.654965036969339 1.1091035734882333
H -1.8695912877793226 1.9306731212545254 -0.8263574560953989
H -1.2006947473817957 1.8330110062133065 0.8125331789011624
H -2.880698577959235 1.3054880483339093 0.5927796599321259
H -2.2831574363598106 -0.753134385696638 -0.556825676017674
H -0.22310917143118353 -2.7603645651854745 -0.08793281429300473
H -0.38123782705606546 -1.9210518647893835 -1.6711553776035737
H 1.2545687327574786 -2.109825956094206 -0.8236259565196193
H 1.6055000597544236 0.29152618088825344 -1.0076306799147994
H 0.6841874597598993 1.4609704072837157 0.09542381366364579
H 3.644335220331049 0.9789934986134242 1.4257506145129413
