20

C 1.2331524207096203 0.8162212020064231 1.376448021342355
C 1.314545128589951 -0.1168184081757097 0.19465197946256674
C 0.11111547572927738 -1.0032102423512832 0.12834665262990855
C -1.1905723538579494 -0.294222038692306 -0.007643087443190072
C -1.3413545119541779 0.55858021400493 -1.217871427961473
O -1.390203150504576 0.49749979137290784 1.1190054138437882
O -2.431841216181643 0.09797395108353878 1.7836951568721173
O 1.5524159418630004 0.5600509556498909 -0.9968774786399992
O 2.6880020873115353 0.2406186949286022 -1.5333077306417215
H 0.6098146727082897 1.7104051247066479 1.083484634530275
H 2.2581689805112246 1.2306777693792048 1.6102241317683263
H 2.1978340074135287 -0.7684653513140492 0.3624804685330718
H 0.07691203189144756 -1.5947636340898923 1.0675612285196057
H 0.22250492013682274 -1.727125648270022 -0.6984725655572641
H -1.9922329910946242 -1.0594366030720037 -0.023250100587366315
H -0.6884899305132417 0.30062516527006744 -2.058383864234038
H -2.383366785775663 0.5510992806307172 -1.606097545007129
H -1.1253948650033345 1.642543097041689 -0.981984181021398
H -2.443414468494779 -0.8769386310490495 1.9594077918261794
H 2.7224046065153686 -0.7653146890603338 -1.5614174982345657
