18

C -0.7150224038756199 -0.7502327493530561 -0.34179190698980366
C 0.4546060271039365 -0.15378241026389095 -1.0769875878756334
C 1.4010322020195207 0.47866068326346095 -0.10913812605357491
C 2.6083661171212382 1.1283445550116749 -0.5209740283717521
O 2.705999548259029 -0.2753076626877221 -0.052330774380796564
C -1.501260344671852 0.2669936338419079 0.44850198598897495
O -2.552484895476241 -0.44046842426752414 1.073549988296682
O -3.2233611565621114 0.48179330816460497 1.7598000225346682
H -1.4448829266009657 -1.224480125586625 -1.047652158914321
H -0.3672030778580018 -1.5728563085020764 0.3129440482957142
H 0.9200342841078362 -0.9869704938815214 -1.6552677481716742
H 0.10345251122586734 0.5721869725662253 -1.8492623002454949
H 1.0936523765964465 0.5655322460372674 0.9620460580053213
H 2.937238344129451 1.1343365459540888 -1.5755361191120518
H 3.111579411485334 1.8188856137484384 0.2095858679444383
H -0.9107373727997699 0.8337181788821184 1.1714816451280752
H -2.0041639379689578 0.9985365076032562 -0.2169265267502592
H -2.616844706235173 0.7391713107778234 2.5079576606714897
