18

C -1.6916669256772723 0.10229602005875042 -0.8269516527686833
C -0.5470799803044001 1.0359996953400794 -0.5150631784089346
C 0.16481053392025155 0.31756832207950636 0.5902693188065706
C 1.407347494387847 -0.3853534198039645 0.13669055708108138
O 2.3214868276599487 0.4832690226696298 -0.45752312931899813
O 3.396906778117024 -0.11480685857378001 -0.8521593132167955
O -0.6821240903929885 -0.5863905132949713 1.1594951061275665
C -1.8729153643205714 -0.6086684235417894 0.4958414247545372
H -1.4613286429324677 -0.6325077972669033 -1.6045612661292499
H -2.5991324866270835 0.6972374287359309 -1.0719422404220884
H -0.9931666271749012 1.957301678764482 -0.08638713607129092
H 0.0993943541439138 1.2368893824987006 -1.38410186304323
H 0.4498885108955349 1.0579499442124431 1.3945204661946007
H 1.1640988874914644 -1.2002273884260062 -0.5567857981330044
H 1.9064793485858935 -0.7986494732875506 1.0456551947542312
H 3.7426114235379004 -0.7752607569900614 -0.17277198175644334
H -2.1404854616263864 -1.6828110376994398 0.29498128390165135
H -2.6651245796837855 -0.10383582547487374 1.096738702147392
