17

C 2.24938897331586 -0.40977961877771574 0.5659806505212397
C 1.092014049843087 -0.8912339782376758 0.146107237904669
C -0.04842548924449102 0.038302754214082496 -0.02160954116338649
C -0.42893114825553924 0.16681384561141946 -1.5026795978318415
C -1.2570258026405041 -0.551162272973576 0.6654624942687811
O 0.2691734526339234 1.2932610506655025 0.43511240605666945
O -0.6833689219511463 2.162358461313389 0.32007512194609655
H 2.37037278258583 0.6516381943598518 0.7870505290567318
H 3.0749200995449404 -1.114358136278304 0.6818341507290548
H 0.9957184571770974 -1.927908351201795 -0.0634782523914583
H -0.38599892507288597 -0.8229319377000213 -1.9906024625995282
H -1.4433848251520311 0.6135683334537281 -1.504510765501827
H 0.24346076141475353 0.9007640653172163 -1.9798465260661289
H -2.057838191964734 0.21224579397995152 0.8029961570653439
H -1.692131731526259 -1.3050352783829697 -0.04687872568423672
H -1.025361889105079 -1.0933876847024586 1.5845666741897464
H -1.2725816515985453 2.0768447593402986 1.1204204495002652
