20

C 2.5595293711722134 -0.15283080671261948 0.8555621086884276
C 1.2211594633460672 -0.5915240618684708 0.3126077812164001
C 0.2711285513580213 0.5799783731256432 0.13759945421872422
C -1.0282018325799216 -0.02144636795140005 -0.4144570142977364
C -0.6796302934020927 -0.7846300583789635 -1.6743602774491086
O -1.562216870217502 -0.942026149397519 0.4821020501180017
O -2.760832851081574 -0.6042870977819413 0.8473055793458342
O -0.027876916926786257 1.2026128321526772 1.317839639986876
O 0.26497628032012316 2.476877275537571 1.2217479439967551
H 3.352622553163113 -0.865832231796286 0.5280023776647947
H 2.7665660109431736 0.8701336269133932 0.47507472311627924
H 0.7488220104328225 -1.2675983295344715 1.0597964587161186
H 1.337052264881449 -1.0613268835724876 -0.6833887433330357
H 0.6783247318179306 1.3183053334802752 -0.5777626795442417
H -1.7372390144729712 0.8164306149540299 -0.6353801749688595
H 0.14687852134260024 -0.2813359580058099 -2.2165246892573967
H -0.39823678822111785 -1.8356081463210223 -1.426760100298109
H -1.5794702839512185 -0.774309516277796 -2.3422462236329396
H -3.055674275002345 -1.1417558749829886 1.6134748727446713
H -0.5176806329219992 3.0601734264181957 1.1197669129685413
