20

C 2.9472844630750927 -0.29322487052589086 -0.6809949763849177
C 1.6805272433150604 -0.8703386863625849 -0.04912076957605263
C 0.5706567684210406 0.1074085786218185 -0.3517828842680992
C -0.7541146744463271 -0.33119368777086877 0.2142484504813995
C -1.7660852815662762 0.7545151727559525 -0.17388725501558172
O -1.3840722989440175 1.9761637929752525 0.42746528851504906
O -2.208415951015488 2.9311178341910806 0.13086998044340326
O -1.137315405154487 -1.5310764265131305 -0.3818478356438768
O -1.3245424683829805 -2.4100786289349796 0.5594795622478862
H 3.831485262394305 -0.9180720345522674 -0.4437481657030675
H 3.1751227979522194 0.7201016585147555 -0.24154777038016648
H 1.8192268693996008 -1.0655243488378385 1.0205748803590302
H 1.4956087814226504 -1.8255532452808112 -0.5684964336023927
H 0.48295288227009364 0.1518863158699749 -1.462290194737933
H 0.794196560194541 1.1264484765776048 0.015371691400952153
H -0.7062678730874339 -0.424981852733887 1.314890545276115
H -2.7882170654553797 0.4837695757912034 0.10294851041656379
H -1.693501478715888 0.9224843713699296 -1.268254969039392
H -1.7792542801646116 3.8077684757184924 0.21507826010941378
H -1.2552748515117476 -3.31162047087379 0.18409468539477314
