17

C 2.7400578254787145 -0.06774389057023467 0.3486675470789025
C 1.5569291670169425 -0.5691991007090337 0.015445872738681036
C 0.466648431220623 0.2818188184082713 -0.551076653272527
C -0.769008735019199 0.2581545238595632 0.32051497672873663
C -1.2777273413083579 -1.1616836510963613 0.4294083192411529
O -1.7354932024196108 1.0436296851309617 -0.2704987084214694
O -2.1073921653169294 2.038950541208219 0.5272108397209414
H 2.997198404806224 0.9781000849023637 0.23597869558764092
H 3.5012539035851606 -0.7190384508891039 0.7554862958989448
H 1.3477122083071948 -1.6033037713305942 0.1433096241186039
H 0.8642571138665708 1.3086017037405444 -0.6319147808728405
H 0.20420407292832107 -0.08542894065328896 -1.5709156609857453
H -0.49036851603285214 0.5978534343096439 1.3283088075792255
H -2.3328874601263414 -1.2187237009243064 0.07614245375115551
H -1.302947556974136 -1.5077608542830676 1.4884118510259212
H -0.6530364135792908 -1.8832397652777568 -0.14206636496997158
H -3.009399736432789 2.3090133341742116 0.22784731843054656
