18

C -1.8976802203240009 0.3574871275977122 -1.103287315828462
C -0.8236271904477085 0.49921857914322 -0.03325209306783952
C -1.3777563995302282 -0.02146036581099431 1.2922351598514172
O -0.361364873070706 -0.9450552776063132 1.3001202029272483
C 0.16504294702563818 -0.6074775620202644 0.03235127227760065
C 1.6068132462601932 -0.2392893344297312 0.19395364651646213
O 2.221700920780364 0.11045267945474364 -0.9956410426299195
O 3.486161783947955 0.4083990238825272 -0.6925017474503359
H -2.8949231236017616 0.13933905048591733 -0.6598771515126872
H -1.670653559915552 -0.48339873713017123 -1.7916649247856942
H -2.0151267886599857 1.3164718104795994 -1.6521837736932619
H -0.4262750247564372 1.5285928410213268 0.026960598818636265
H -2.35964261484905 -0.5129710563895719 1.221297793694118
H -1.380976024958919 0.754589927495523 2.0558876402263504
H 0.012132325630777926 -1.4707038472443097 -0.6398643709793629
H 1.7188015125315403 0.616308945538082 0.8846007182157353
H 2.152655845708507 -1.1469393557747056 0.571665715936527
H 3.844717238229311 -0.23836042431699572 -0.010800328516563554
