18

C -0.6856337230215723 -0.11317667676875477 -1.413430820517334
C -0.20815745887831655 -0.1427505116600394 0.046724661933197006
C -1.056102221923014 -1.0562602163240808 0.8812189201079995
C 1.235852582141499 -0.5277644297402116 0.007239470848028459
C 2.194743522336856 0.5953161112589036 0.42026013501809456
O 2.0052665220675086 -0.5576583878404595 1.1448682942774604
O -0.38551733893075074 1.1595218308635944 0.5419484229021257
O -1.6390122507667213 1.4983613982753377 0.47284525393107085
H -1.6958506341031077 0.28104675033154525 -1.507307905202594
H 0.08191337613560636 0.5006150886586511 -1.9476530152411506
H -0.5650169614309433 -1.1463742433953668 -1.794182575462573
H -2.0593378681256795 -1.1364267701936934 0.4368666162405755
H -1.2017090212873354 -0.6890271218694335 1.9262295936366263
H -0.653404406784318 -2.081284471380446 0.9674933660499316
H 1.6014820602776871 -1.1639324669481177 -0.8297283346676276
H 1.7455892349739328 1.5003217509537963 0.9044588645916587
H 3.0726091365251613 0.7508961686840782 -0.21288614077889065
H -1.787714549206491 2.328576197094726 -0.04496480766658689
