17

C -1.6217072026817652 -1.7070095621142822 0.9347349710359719
C -0.9764296836842588 -1.052888564164707 -0.00709577883313077
C -0.30744035800831787 0.2391986748662021 0.26267745051035263
C -0.9442236625867043 1.3246920894181717 -0.5723378107543865
C 1.156399196856289 0.06860139780576907 -0.04054669631885776
O 1.8974379769294558 1.215550568703138 0.17344824265752853
O 3.16429523906196 1.0004955653609917 -0.10885305355338694
H -1.68956112166231 -1.3322243343416384 1.934175767675606
H -2.1049458541622066 -2.6517841722808972 0.7165701571910034
H -0.9265804756906685 -1.4561773422861852 -1.0010680510922085
H -0.4943481115660329 0.5065820186594581 1.3220242478619353
H -0.8104601887886639 1.160188303351932 -1.6641306361742478
H -0.5452249530161347 2.312857079316631 -0.24672154702062757
H -2.028040603326583 1.341963383779921 -0.2974200022497025
H 1.5645616383662113 -0.7306798353919396 0.608154693168412
H 1.2852510825601238 -0.26264177575051634 -1.08901610757812
H 3.3810170813995533 0.023276505067879504 -0.1498322868133893
