18

C 1.6145529665345855 -0.8974508819939997 0.5956792085837104
C 1.2538970586310039 -0.06722043460531653 -0.6101097129660819
C -0.1126197930981381 0.5556383369081912 -0.4767074071728351
C -1.1519988600906936 -0.5029290451174694 -0.33177013410472295
C -2.0761670606881055 -0.5673883168007994 0.7897749229694977
O -0.9332036632221262 -1.3700537571353162 0.8487603184344938
O -0.08081464996135877 1.3906722822466528 0.6439778375736828
O -0.23011262915261496 2.651289788081739 0.34326831894261384
H 1.1094581887791728 -0.46134643349448035 1.4742453269023685
H 2.7256623577858856 -0.9245288187241703 0.7513324817478466
H 1.2840116378031068 -1.9230197320546658 0.4424567298924652
H 2.0133250171767845 0.7539110212197044 -0.668518320976596
H 1.2446664126151057 -0.6668329512068952 -1.543054311377584
H -0.26268311838507563 1.160164109072325 -1.412835762365375
H -1.358984429304303 -1.1363443341412705 -1.2077511592441317
H -2.166942971685629 0.2981139682559641 1.4624602281207506
H -3.011106285124887 -1.1486611348476796 0.6495566935204509
H 0.13905982138724854 2.855986334337517 -0.5451491203448916
