20

C -2.522089462715269 -0.86332570541565 -0.14423464863448782
C -1.0907996879780464 -0.610887720803188 -0.5947064851725102
C -0.49520982254056156 0.5722875740497599 0.1343297430413421
C 0.9181483816305912 0.7803634035102106 -0.3458755296565332
C 1.8008352484373158 -0.41784284029591773 -0.0953495227253789
O 3.0772004789294805 -0.06670979518546898 -0.5929512355489921
O 3.924429989167453 -1.054450347336541 -0.4193898413660541
O -1.21783926308286 1.7361869391606641 -0.08444220356371342
O -1.637583105312722 2.190539357002706 1.0571046990845996
H -2.749950922606886 -0.31817753920021025 0.8018024981857179
H -2.7196755732263354 -1.9485026111702557 0.00771334543482745
H -3.2236231699441777 -0.5338242703794291 -0.9423405079726082
H -1.0808602879371663 -0.3974297752078459 -1.6746399420392835
H -0.5065032532225884 -1.5099892339423913 -0.31008444516474387
H -0.48347760320229227 0.3655313024778052 1.2181008848663362
H 1.3692394279284354 1.7225487548984872 -0.04216151890332821
H 1.4922632283721802 -1.3036262907103955 -0.6492822871381156
H 1.8533067999826534 -0.5810295927014588 0.9837870539566402
H 4.502655972270006 -0.8026758968653462 0.36710419845644404
H -1.2104673749492731 3.0410142881144338 1.3255157448598205
