20

C 2.875379723169486 0.33229987173460407 -0.0889943718849683
C 1.5049027783313693 -0.023562671287561242 0.485095725313643
C 0.5953239340116387 -0.27168385203796913 -0.6820317389707199
C -0.8056402116826492 -0.6366931541723839 -0.2861162212509189
C -1.4924378537775853 0.42144365884904467 0.526284215376164
O -1.516069839186977 1.6320971191487599 -0.17306459822406162
O -2.105703542493882 2.560559098633685 0.5118636484415563
O -0.7858125346474556 -1.834739171753066 0.41386224439648317
O -1.4555016627770443 -2.7241510869960757 -0.2469660784817069
H 3.6725151755849574 0.2509704900039027 0.6700084918577596
H 3.1524016964280372 -0.3438328858656851 -0.9282304775124752
H 2.862288383103862 1.3599039629460796 -0.5303348139114936
H 1.678814333158719 -0.9558288813600079 1.0863424070647507
H 1.0305976148353262 -1.097602851142896 -1.2796240870348154
H 0.6172598517218051 0.6341100410910538 -1.322375653266009
H -1.3881548408358397 -0.767857439465752 -1.2177889529419799
H -2.5540406270146416 0.12110511115614238 0.6527010655277949
H -1.0767156576876298 0.5325403904664219 1.5401451586397537
H -2.4558227083014477 3.232770837707087 -0.13525186310511425
H -2.3535840119400415 -2.4218485876554103 -0.5378873483729107
