20

C -2.4305467971126284 -0.12165627216889828 0.4064096152673168
C -1.0331208694117504 -0.14731836751848584 0.9642793559742824
C -0.0878302548752814 0.25518212995790807 -0.14796819015500054
C -0.41311906040796714 1.6470648162984514 -0.651789430424173
C 1.3427920719645965 0.2712027538798009 0.30314062439113554
O 1.7916598096679184 -0.9759911690688858 0.7361929666548968
O 3.0638379687364785 -0.7939311890246505 1.0975315762577902
O -0.18326938379846727 -0.6536121778538391 -1.2124773648294562
O 0.14630680679304234 -1.8340254395522055 -0.7216436926186381
H -3.0192210225134675 -0.9805206724985465 0.8074532042438045
H -2.430733564536613 -0.2009664310162765 -0.7133922018092715
H -2.952509075539702 0.8316933926883272 0.6523254180655487
H -0.7449264493942072 -1.1257865403077583 1.3911246072415688
H -0.9037482691967073 0.6277036890760463 1.7672888906548214
H 0.42583337852137226 1.9104026519521102 -1.359726009639734
H -0.45241234061398594 2.3396203294846276 0.20340025184530847
H 1.9643081006304757 0.5393764848705841 -0.5759729291252629
H 1.5246681646871534 1.0647029347076198 1.0658978392289753
H 3.5786345495522673 -0.3478093381121357 0.3601169883173441
H 0.813396236847462 -2.3053315857938186 -1.2470407224673954
