17

C -1.9502665417544895 -0.8351221679178833 1.0903391007836005
C -0.8753566440160738 -0.2063963728192955 0.3027579563917996
C -1.1890304867815287 0.43045084068093736 -0.999932068969976
C 0.3548584419173396 -0.2108111795913185 0.7539840135598833
C 1.415930355089301 0.428366073271276 -0.05810354696701764
O 2.392995149987922 -0.5116761250853009 -0.39279792226477767
O 3.344012428694263 -0.007345533173302941 -1.1026948618606134
H -1.6101638664070708 -1.6791182144754806 1.7112270621318457
H -2.4546505393382594 -0.08232649928275529 1.7519734206739654
H -2.7272501852706577 -1.2420765787495243 0.4011835422370321
H -2.263902528128313 0.23875994624261573 -1.2796825588998277
H -0.5901649697233066 -0.09096672731325142 -1.7894675219065999
H -1.0193195777850976 1.523545497526831 -0.9932634282558983
H 0.5749129943926198 -0.6745477883640022 1.6996620151010162
H 1.0271193127105394 0.8646215393949024 -0.9930640060749316
H 1.8475932262404218 1.2698627634336863 0.5311812911343318
H 3.722683430172352 0.7847805262218907 -0.6446497937166706
