20

C 1.8973933868079265 1.082298898358495 -0.5190915295809082
C 1.8709488657063134 -0.34676400009967173 -0.02669082808244585
C 0.632803018025667 -1.0806316882371663 -0.3260128266296356
C -0.6262585128116971 -0.8117792883001889 0.35593404608718676
C -1.2004655583895003 0.5714029152314657 0.30980925200337994
O -0.5088953947889236 1.5369178249063495 0.9849341676302616
O -1.1203916199509203 2.6825122556507885 0.8594674377708007
O -1.6225906756700292 -1.596105804147153 -0.34928211826084016
O -2.186933983939174 -2.4488098971273584 0.4450676943016954
H 1.0248178649137074 1.2967644257408293 -1.1737699218360291
H 2.033931651968678 1.824007855695052 0.275517077100583
H 2.7992805444605455 1.2324406688256575 -1.1847563923220137
H 2.7900906537205414 -0.8606061477665605 -0.4629894342574005
H 2.0562348422085335 -0.31001020714211813 1.1038056205801527
H 0.8180332501059502 -2.1517032606982354 -0.5259821705474941
H -0.6486314618474925 -1.1957263067664867 1.4083299949704726
H -1.3347996683383716 0.8343210257954211 -0.785331514111102
H -2.2698283486818505 0.4865582047386829 0.6652635307782071
H -2.070021638188007 2.542555036928944 0.5601592657307253
H -2.334717215312024 -3.2876425115867822 -0.08069562750890077
