20

C 2.298302077555295 1.5281162198935243 0.19960646096889356
C 1.631217480891527 0.17753887389267672 -0.05680966550995453
C 0.1660610200550047 0.35280366130310203 0.21234875917287002
C -0.6235603361019338 -0.9094649314390091 -0.002105964952380937
C -2.0714194882304047 -0.5962671854806554 0.30103643410328723
O -2.544538479716186 0.41813077707565127 -0.5525498784157415
O -3.8170966265320705 0.602107032719208 -0.1910929059479615
O 2.1946870635670748 -0.8092533689463952 0.7473702762133587
O 2.801081154914119 -1.744109206945084 0.05632691068508982
H 1.6398253377692766 2.172286888881588 0.8522261460952969
H 2.411754334194539 2.090844790707493 -0.7627699642429195
H 1.8507093071699345 -0.09587867043219993 -1.106157309969922
H -0.21169284090856447 1.0987715775858136 -0.5376966504876969
H 0.03616914836796773 0.7006476484683062 1.2441133841271352
H -0.2900076774309906 -1.6402696286495926 0.7746421774508142
H -0.47850407627110414 -1.280224839351599 -1.0283928861596319
H -2.1840161256455306 -0.19452949835461325 1.3282996741991218
H -2.741199621447463 -1.45002035521941 0.1967333212518154
H -3.8228176738826583 1.0829031757471999 0.688257624240929
H 3.755046021682099 -1.504132961456068 -0.102624062263711
