18

C -1.3195103087673008 -0.979945622826247 0.3563378084824345
C 0.13122591537394626 -1.0942368758295922 0.062293686334053494
C 0.8357326976505254 0.18183200648962453 -0.18707236214497955
C 0.1248060840165544 1.4012075772446904 0.30364902705332947
O -1.2036766902543816 1.435654019215555 0.20992385853474346
C -1.9385578385374511 0.33393570053819854 0.06010802854670892
O 2.108337672936795 0.18518889688285153 0.40874026749269193
O 3.06991393865984 0.3218851664791929 -0.4407768366487345
H -1.5105568002637573 -1.2756494450496372 1.4289773221537316
H -1.8817545913414486 -1.7606709769046427 -0.23687590661013125
H 0.30137997093073265 -1.7774010832750955 -0.8211991073616618
H 0.6650484068610295 -1.6228599687390275 0.9059510625064946
H 1.0273372392035864 0.30538691962893444 -1.2893866562668992
H 0.552057444957105 2.2735732573259777 -0.271749941049614
H 0.4311294550161455 1.6008813439579566 1.3693816525207225
H -2.38137883543845 0.3170751788278817 -0.9784861485041502
H -2.8503602900191782 0.4209255145917158 0.72547506855674
H 3.83882652901564 -0.26678160855831917 -0.1944174222340562
