18

C -2.3078772437216246 -0.16447769425965528 0.27404752515844116
C -0.9458013349172709 -0.8447375549727454 0.18052903327271033
C 0.11075635967845655 -0.0934569201671875 0.9238248546913516
C 1.130391523514421 0.26283032031322895 -0.14860243283677133
C 0.28929647408804904 0.14281480911889088 -1.4023610273096054
O -0.5967698291715012 -0.9042991742611025 -1.1463301114615563
O 2.1381743032854357 -0.6957437218756249 -0.2335470435020144
O 3.327827704939206 -0.16590244093642922 -0.06097254037021532
H -2.3717323279654643 0.42639339332537607 1.2282315074275236
H -2.5059666494126347 0.468670474723933 -0.599826777276424
H -3.049258852530242 -0.9842741208529606 0.38542752061434726
H -0.9971605198344129 -1.903047504495964 0.5524624962380313
H 0.5719141249070605 -0.7097939466085025 1.7321662735454368
H -0.3211149344625272 0.8094175493087038 1.4016474952506832
H 1.4959411479621019 1.2717190056908554 0.04304253670470334
H -0.24139855996568713 1.0968258891334157 -1.585188037375361
H 0.900352998028658 -0.07466577555976406 -2.295920729546417
H 3.3724256155779764 0.4166160251105178 0.7513694567751588
