20

C -1.3596345073261638 1.4977169504608545 0.09257476666665693
C -1.6205012156644212 0.4110327961863142 -0.9096293588493554
C -0.7152744642246175 -0.7359792612515783 -0.6786098281247642
C 0.7409231786975313 -0.5008056352385648 -0.7733784930993853
C 1.3482997414640627 0.48787647515159516 0.1510366083097013
O 2.7365879302228984 0.4886397632356862 -0.15955941848107816
O 3.3646717291654573 1.3351153836961067 0.6073143611497639
O -1.0220727604180777 -1.2891405557176772 0.5778318989476677
O -1.4695863448674191 -2.4945175191575144 0.4534103116824945
H -2.1209502361115242 2.2983512811416826 0.09147942216023688
H -1.141883530472906 1.0675249078134241 1.0684170198895298
H -2.6715552495535135 0.056474070391437134 -0.7202607978634206
H -1.6294955029249198 0.7778781877999632 -1.9548881473195112
H -0.9651023729440401 -1.547242460604767 -1.4294448796408863
H 1.0677089513043252 -0.21704823714160706 -1.8177095018165372
H 1.2375287547855194 -1.4912386419314807 -0.5471010531252926
H 1.2825184261224718 0.19676807725147177 1.216114464827428
H 1.05586016570645 1.5439583202917089 -0.018590656001926012
H 3.865300221547915 0.9189984031829801 1.3490520095183132
H -1.9833429145090034 -2.8043623055600357 1.22522668863705
