14

C -2.4331601815355546 0.14414776864615766 -0.09026562272967055
C -1.1527908872875896 -0.3994675659571634 -0.6153195353341278
C -0.007195041908933873 0.17398308926310616 -0.3242017388568988
C 1.3074033132317275 -0.340165366489661 -0.8317070375305589
C 2.411130189812686 0.17455248611483562 0.0637764521996504
H -2.3077734092158333 0.4047161926429825 0.99013169066427
H -3.256194480722258 -0.5872623208404651 -0.14084032433167953
H -2.683238521873126 1.0838922843063896 -0.6629062714145428
H -1.240957729466308 -1.2907983367617888 -1.2459624458760057
H -0.005384219440740436 1.0543011401711186 0.3076401046093105
H 1.3121742912354 -1.465834879915029 -0.810484450337649
H 2.6778533758126124 -0.5204211820255391 0.8737250904603054
H 2.0900531761476295 1.1310626148857286 0.5546926344951492
H 3.288080125210239 0.4372940759593313 -0.5607375558776613
