15

C -1.2487899093185006 0.8041446832477535 0.58780331504791
C -1.3388837811016776 -0.6134765882410543 0.06654166041223156
C -0.05591647933069406 -0.6471996239939212 -0.7779633023179536
C 0.8448975899120212 0.13152583574967808 0.16703456743195014
O 0.06296080166483611 1.1921351967804443 0.5355534559415513
C 2.144131144071091 0.5217288373140988 -0.47465207235154117
H -1.6520428927494757 0.8365205818632467 1.5996234514057512
H -1.8592973436821645 1.4272218469355846 -0.12665946504411296
H -1.1702818455297574 -1.2878706579500043 0.9131927934654823
H -2.2286217609638244 -0.8063375711689341 -0.5267971638865647
H -0.21835271691772615 -0.040031186209035084 -1.7123226326520784
H 0.28770717493133563 -1.66110848394114 -0.971873733040111
H 1.040510564909476 -0.5016211692103566 1.053489986931541
H 2.6312653700014024 -0.3608739674447509 -0.8964871268984853
H 2.7607140841036646 1.0052422662683629 0.2990598711796426
