20

C -2.2796301402115398 -0.5248946576326359 0.7087604681639887
C -0.8889020064426981 -0.8079727100754768 0.25195032732109895
C -0.07292532047856921 0.4386605350226228 -0.00908128251008319
C 1.300985582093883 -0.0235742820335886 -0.4612706365545673
C 2.210406404084121 1.1258760547908604 -0.8008201249960049
O 1.902045699734421 -0.7422280294694344 0.5667042404802879
O 2.09136256382619 -1.9962912674559798 0.2192862088693579
O -0.6789916019322043 1.1609108068771388 -1.0398798953442148
O -0.8998253049753032 2.3855649192496133 -0.6182094337111648
H -2.7212794270171647 0.39669724748783863 0.3202298610960513
H -2.932891181218918 -1.3627568991615828 0.33357885045577884
H -2.3839573962877254 -0.5284776164445397 1.800503311493575
H -0.9295672031810293 -1.360368315906178 -0.7204753001749129
H -0.37331548346968 -1.3979829856931385 1.024682857606588
H 0.06391222046832296 1.0668664457882973 0.8798085273330407
H 1.1406634415936292 -0.7118776711439113 -1.309949868617714
H 1.7856379520047525 2.111077817970516 -0.6237552581530307
H 2.53768467965502 0.9810015278217027 -1.8529330199277807
H 2.0357379369476742 -2.617741314024943 0.968964383566566
H -0.9071514151933002 2.4075103940327796 0.3619057836030537
