18

C -2.140131645201541 -0.9334880328031591 0.15205186423946143
C -0.9557426091156681 -0.28301646450890583 -0.532447939022793
C -0.10623640205942665 0.465241878757677 0.45888047643455787
C -0.255414288300138 1.6480050524581287 -0.42977679146580466
O -1.2248446582866868 0.9236808605916478 -1.1600980789377893
C 1.277677936411329 -0.08504413164597924 0.6307466626329826
O 2.020445156637966 -0.08383470775774744 -0.5366670457591116
O 3.2064967658644035 -0.5900647045768092 -0.24676373594701304
H -2.6020396204023792 -0.16440023341172305 0.7939471262314627
H -2.824470308256232 -1.3888531572899039 -0.5747925239193971
H -1.7021105706276434 -1.6961540131822435 0.8525806884189077
H -0.39378411904362143 -0.9512065517687951 -1.225762933299336
H -0.5891479212424992 0.6082935768722632 1.4337993291062494
H 0.5792049448087968 1.9299083489013396 -1.0701141417750928
H -0.8014259174158455 2.505828485751391 0.06103726121375794
H 1.8247493410194002 0.4647222944171276 1.3973115651600583
H 1.1626407522924196 -1.1574333667612173 0.9411707135797007
H 3.5241331629173263 -1.212185134043095 -0.9451024968908089
