14

C 2.53886613868728 -0.000248793051350074 0.003425321097846113
C 1.4136055401035375 -0.6114762989532657 -0.3104541519366291
C 0.14387046379035723 0.13532948282111806 -0.3987820276247605
C -0.9037214625531483 -0.3558521472531663 0.5516573754051852
C -2.186984015904384 0.369073885508475 0.49020322568893443
H 3.479524815169669 -0.5505759028799339 0.06940887143804365
H 2.605622593351949 1.059766239248803 0.21149611393307224
H 1.4212063467940288 -1.6696711789728804 -0.504913447793013
H -0.2880252996405361 0.15542982044387582 -1.419434926512591
H 0.3187748177323331 1.2208618846328212 -0.13760209431108492
H -0.9412061769250472 -1.4259993889144247 0.6976349971261255
H -2.8340763078511233 0.10644168450822669 -0.3571153894940103
H -2.7771550303583723 0.10896936636864155 1.4158024848006858
H -1.990302422396552 1.4579513464931193 0.49766226573738326
