18

C -2.1855997785645327 -0.853848745532289 -0.5208565951064059
C -0.9875916023387791 -0.17070040873598574 0.1052752103582275
C -1.1208298093253657 1.3128141478323823 0.2376606520019499
C 0.3208748730119895 -0.8108971553345563 -0.17340687033311517
C 1.5483846686526452 0.06826823177051779 -0.1706154777758499
O 2.4946946188484502 -0.3997824369058966 0.7354869776841608
O 3.5396432871103025 0.39685641513526443 0.699739437666509
O -0.3506723072649645 -0.8823210854480842 1.143776421267608
H -1.8619854367130528 -1.4821082401780337 -1.361236589608579
H -2.938814794680824 -0.13297176662842805 -0.8975341644286726
H -2.6897326776993427 -1.4286095115690278 0.2847596173653578
H -0.6010633142226349 1.73298204202719 1.1195444407098027
H -0.8093634552000397 1.8560538690030017 -0.6842679898089078
H -2.207503280257497 1.5541751920665636 0.3692511027620918
H 0.3593666837316645 -1.8129989907244268 -0.5921146168270632
H 1.2637507518682154 1.0945599722753039 0.13458834478547615
H 1.979058422051617 0.057825661988878244 -1.1886870523917183
H 4.247383150992144 -0.0992971910423731 0.18369445709804633
