17

C -2.8210586108922153 0.8205434007134468 -0.6027494712585946
C -2.0799631553470177 -0.2267651339002703 -0.3109186593730259
C -0.6619483896973679 -0.26599997357511024 -0.7370119069737014
C 0.19486620632644577 -0.38815414077253024 0.48728416184800927
C 1.6582369163068498 -0.43775048285206497 0.18558566336287097
O 2.104957778419493 0.7059833609760036 -0.47818140994750546
O 3.3637364733682125 0.6842652638704678 -0.7480975566860497
H -2.4033250885847095 1.639125120213146 -1.144245136341062
H -3.8678774807579894 0.8503137404425467 -0.2886094429015827
H -2.4992555361680964 -1.060177648955855 0.23838829912569132
H -0.4905068601330701 -1.2065777646453755 -1.33776419109528
H -0.38092930060404706 0.5604365711869841 -1.3971244358094708
H -0.01985700248493833 0.4322995915292868 1.2200255664060204
H -0.07251650225493744 -1.3265299986448114 1.0126881443442903
H 2.238989255645844 -0.696957167169835 1.0670510849338979
H 1.8065612111657985 -1.2831388943020965 -0.5504127833566246
H 3.9298900856916466 1.199084155886066 -0.12605220981672458
