16

C 1.5927362573756445 0.7126068388237083 0.002298483353357654
C 1.1995662327749144 -0.5136766449388448 -0.7417696252756396
O 2.032222002594545 -0.9637245623214329 -1.5085330824622636
C -0.08655315148153377 -1.1825528043437328 -0.6060272709161946
C -1.024700231810214 -0.5198353623705223 0.3734018299782245
C -1.3676163390974279 0.8842757167799795 0.023823313853851082
H 1.438710144856072 1.5639289984882165 -0.6804526767904178
H 1.1134839179979101 0.8095210443354761 0.97982989240288
H 2.702355708085393 0.6939318274057804 0.2051058451478777
H -0.5604617513276983 -1.3460325083550715 -1.573857476828209
H 0.11292026062961823 -2.211894631904843 -0.1838605496054727
H -0.6541483996176455 -0.5798206541022326 1.4172596561779476
H -1.9496140221023124 -1.1709764327114471 0.3662640280218682
H -0.92424372876857 1.2356773813084772 -0.9382744594118394
H -1.1387853618777564 1.623885382401002 0.8320848153840656
H -2.485871538231026 0.9646864115054608 -0.11054189588077164
