15

C -2.2585201226391094 -0.29645064880196137 0.33506358453552343
C -0.8547282568679447 -0.48022724395398 -0.12664501218427637
O -0.3947090522074785 -1.55754612040934 -0.4476040862511469
C 0.0026586782480342228 0.7334864261976195 -0.18746026257136722
C 1.400737250389638 0.39560053387875665 -0.6734238886007838
C 1.9833057597502133 -0.5944186006371458 0.3068429458042235
H -2.2493103378392645 0.1275432231253852 1.3644796063598315
H -2.783677428443412 0.39312743778228376 -0.37442000206408116
H -2.8185880883645273 -1.2497951856498382 0.3900125396561369
H 0.03089077114917593 1.155426778405454 0.8331704291242368
H -0.4832969606672409 1.4549725469261126 -0.8675858116743336
H 1.9969173914956595 1.3280977280079722 -0.6866895601006731
H 1.4018791160764805 -0.07298137236912929 -1.6583791152581007
H 2.2154439535596806 -0.14705501907666232 1.2916389935045498
H 2.8109973263601518 -1.1897804834254935 -0.11093201081765916
