16

C 2.261970102727043 0.22238173509678186 0.25970169449310954
C 0.9138782816093709 0.49033081140576334 -0.40078558469091347
C 0.12685267886970442 -0.7538259952832079 -0.2661837184293575
O 0.704957163708832 -1.806870726100262 -0.5001569915328934
C -1.2869211056336933 -0.8271607790723103 0.14263166900529275
C -2.004729400892744 0.48836482214464905 0.08541697175049766
H 2.766669226420282 -0.5229359114461556 -0.40573151373273747
H 2.814982562255978 1.1685702948588281 0.33590486323980095
H 2.0869385814413097 -0.23701002090180104 1.2543382793363471
H 1.062140575119003 0.6666461166093096 -1.4934964327351097
H 0.4131711651834627 1.3825751103858634 0.02230034556230788
H -1.7951619965597432 -1.5335763543920522 -0.5247992138598151
H -1.3255032073145876 -1.1813867158812086 1.1979540278822218
H -2.188166307228129 0.8524926598607715 -0.9370408111855413
H -1.535481095620264 1.275284761730378 0.6954185167235877
H -3.0155972240858673 0.31612019098464983 0.5345278981732091
