23

C -2.477384511124172 -0.2584067227080045 -0.030026163327865518
O -3.3715596922405067 0.2764170629274644 0.9032361291737863
O -4.51546643063726 -0.3201500628002934 0.8342611158107738
C -1.1310363507086227 0.4313180429845486 0.039702087068856404
C -0.23474187500641014 -0.18653818707573336 -0.9764849695750717
C 1.1316958969761672 0.3718826856075133 -1.045289874203895
C 1.9439869208050407 0.27613632902381446 0.18709730618332815
O 3.2530254729639116 0.718324195166197 -0.11179233324066776
O 3.629545316427177 1.6735673336275634 0.6947835119506223
C 2.110791731665435 -1.197156760771456 0.5774480093995134
H -2.9086757506783023 -0.24129669514381305 -1.0502920819361656
H -2.3510795211995177 -1.3313305401006792 0.24289580662921714
H -5.245969969464281 0.22629277339738782 0.46042684394512606
H -0.7729137043056306 0.33162139786581263 1.074557468795201
H -1.3349863823158648 1.5152549556497317 -0.1948062872813272
H -0.7157076812076467 -0.03657464745757661 -1.979081167481601
H -0.26395239944047627 -1.2956292294491558 -0.8179328442556936
H 1.6543807898077814 0.28748619129790853 -1.9920438841160146
H 1.5784253306329499 0.8633924789345614 1.0360343863267043
H 3.4530480943599926 2.5408644045512854 0.21321937222792234
H 1.1606756965388254 -1.7376251925723452 0.5735446913888501
H 2.76304346323509 -1.6585224499563662 -0.19296606800142446
H 2.6448555549159316 -1.2493273629982615 1.5535089445197767
