22

C 2.523051225807097 -0.041067528082986506 0.4055322550374088
O 2.8395492375334856 0.2591584288320564 -0.9068267882245036
O 3.9780429327062214 0.9203149575895297 -0.915115078546556
C 1.2459782478862829 -0.7961878601702577 0.5600779032603403
C 0.04280903891392973 -0.06786285504840145 0.03256853102804637
C -1.201129693940703 -0.8937200397340309 0.2251805634356045
C -2.43739546163664 -0.19777384237474419 -0.29240629354123415
O -2.3578928152430545 0.07979978515523647 -1.6398468849047387
C -2.7923468237247993 1.0106433267500115 0.549100750069761
H 3.3421893928833746 -0.6795592959746791 0.7984316790485136
H 2.4692050872967886 0.8916956511033208 1.0350738645518893
H 4.1135044677544 1.346557518984367 -0.042127059907783
H 1.079060033487648 -0.9371611644048676 1.6578691636296954
H 1.345890435415225 -1.8181832414190715 0.1444696533561338
H 0.23009357154656185 0.12566520510403725 -1.050734917755851
H -0.030279408949447795 0.8962000734051393 0.5773237685574799
H -1.0712683134646797 -1.8638474844237143 -0.296668808335418
H -1.2975972625337802 -1.1325862687158237 1.300907590989529
H -3.282265264487432 -0.9258837163044923 -0.15096074700795203
H -3.7965289298269385 1.3552207941503853 0.20914414783577254
H -2.0323153152490723 1.8118300209087232 0.46732313452342955
H -2.910354382174354 0.6567475346702254 1.5927673110905773
