22

C -2.3862819000349007 0.6534536432632833 -0.13704539022106488
C -1.3918099198535663 -0.4409458722160018 -0.48734443237637215
C -0.34360057242977804 -0.5718608805104259 0.5900124963157787
O 0.533014015776193 -1.5618409498588348 0.24547418646074579
O 0.4773012612718434 -2.5089649681167625 1.1590409699797493
C 0.41482927106032896 0.7105991100806297 0.8085419628572077
C 1.1328254116351575 1.1566158224747627 -0.4556671448359408
O 1.7951004956700978 2.354787546710696 -0.11489379313927425
C 2.254566585229036 0.16177635016124317 -0.7658057179798521
H -2.1410774972683577 1.6094928114921836 -0.6498253537483316
H -2.3306028116946056 0.7724461473536871 0.968555549383025
H -3.416413458043967 0.30446839309773316 -0.3567808078559408
H -1.9530338470024333 -1.4050113736315393 -0.5010068768635585
H -0.9820533774398139 -0.2469207752503382 -1.4831614628479697
H -0.8765883148377959 -0.8000613767483692 1.532393319214377
H 0.09198491056136114 -3.3627554284048555 0.7809510579441439
H 1.2249613543118734 0.47830224026114987 1.5461561502040813
H -0.1869172892626833 1.5190326857654242 1.2400709871389783
H 0.464912053288793 1.3145943877699755 -1.301229427857304
H 1.877691551062616 -0.6261014083447902 -1.4223415314514942
H 2.644507103062765 -0.19094995120792355 0.20597425430569558
H 3.09668497493781 0.6798438458590763 -1.2843233920136146
