21

C -2.202789794947237 -1.085937093547283 0.36981832005403864
C -0.9424113499043905 -0.565598507407421 -0.22092155318037227
C -0.5825617504892454 0.820851473859348 0.26652981077293386
O -0.9585855440717517 1.743663334903126 -0.7134196286475781
O -1.74111033582973 2.673613204654538 -0.22126346753221088
C 0.9496660525636155 0.7504320116777126 0.3370072907525949
C 1.1788803987969916 -0.542316850120703 -0.45742970789573756
O 0.18223256942570643 -1.34792273261398 0.09018691905678536
C 2.5602219930014103 -1.033370955698987 -0.17190522211152845
H -2.9289425444284913 -0.28558065244356357 0.5366847201286613
H -2.6402595295012063 -1.8225461765791602 -0.36403860101784385
H -2.0450576910457055 -1.6645836257020032 1.3055972992637614
H -0.9840569398639009 -0.5597715046890447 -1.3482193183109403
H -1.0110556358824885 1.0479877518471579 1.257497446341414
H -1.2054205920275094 3.5111681252070053 -0.14884777448624317
H 1.2827053938651336 0.5315302093364525 1.368900426232127
H 1.4265344753420521 1.613376438607889 -0.1250428996291813
H 0.9465574710935453 -0.40382689428855073 -1.5156373902016533
H 3.2658208693357342 -0.23547538806910093 -0.4965269224118926
H 2.7753174271721406 -1.9861244227515717 -0.6610027267200455
H 2.674315057395335 -1.1595677461818548 0.9120329795428995
