22

C -2.507157947943711 0.2859009485377497 0.6553832104246923
C -1.8647515399466117 -0.14494118637631737 -0.6402597857436119
O -1.921382087135534 0.8977694629457642 -1.5428697757833154
C -0.4810399912409642 -0.690681020514125 -0.45024784552376534
O -0.03845055229204031 -1.1513074259386786 -1.693107210150354
O 0.17114762747277526 -2.451009644166388 -1.6812722212947282
C 0.4948399562637508 0.3172878103723339 0.05889959412581357
C 1.8449484339171127 -0.36587592319528445 0.20373333959471046
C 2.9019326360234112 0.5918172455460653 0.7190844751907913
H -3.6025032600694877 0.012407925242889771 0.6754119741447239
H -2.4639576622677213 1.401846269741712 0.786493682096155
H -2.011462824018861 -0.15146016429334036 1.5426489858602574
H -2.4767528636087848 -0.9808660600819475 -1.08699299473184
H -1.762530331985426 1.7754148145724171 -1.087440670077985
H -0.5450306435788735 -1.5466235354653124 0.24183689513424841
H 0.20129061814312224 0.6608447329729961 1.0818474132694482
H 0.561520643065649 1.2000685258928827 -0.5838037820021851
H 1.755078473862144 -1.1687497094455057 0.9723780295570451
H 2.1963100811007763 -0.8006916424345658 -0.7446148459788071
H 3.8816549777223597 0.051461827898042406 0.5923768403114605
H 2.760811203289979 0.706918156101887 1.8112847970689672
H 2.9054850532269447 1.5504685920866423 0.16922989450832587
