19

C 2.5485634146221523 -0.7646182546983701 -0.07971485199637234
C 2.008213313204561 0.5979691846460413 -0.3078483282580624
C 0.5752838863366005 0.6434001688791386 -0.7484372671899091
C -0.3815081585728331 0.03263961044219151 0.22371745513882216
C -1.7718088860909358 0.18178902638593533 -0.41141598395818024
C -2.836739603402237 -0.39782572885417683 0.47280284815399837
H 1.8620994400382784 -1.484096436566621 0.3634422558109239
H 3.415670849767154 -0.6718833712897032 0.6299960915381536
H 2.993880331842376 -1.2067681269216322 -1.006003218671234
H 2.0995573983251847 1.2581479290537179 0.5856768843976016
H 2.612389655546804 1.085785590430029 -1.1024937717211605
H 0.2963880251600345 1.6958209078767186 -0.8984983002240412
H -0.4666158060338783 0.6266903750133275 1.1813889311020425
H -0.16445179795736348 -0.9891994900647831 0.5156305954856102
H -1.6952821133117255 -0.34271395504338054 -1.3923427991890416
H -1.8916820338554408 1.2760858538769646 -0.5816403785282414
H -3.318820446911323 0.46479513883172385 1.0039389677872945
H -3.561654539726417 -0.9214911043290995 -0.1717784258508073
H -2.3234829289809 -1.0845273176681278 1.191377760608566
