20

C -3.0341027006381753 0.5882993802691753 -0.12043522529828578
C -1.7520954151127608 0.36959887860728 -0.3714328635421411
C -0.6855639190324797 0.6406808003069393 0.6450314855241649
C 0.0762732273210926 -0.5927076564751005 0.9807228569420033
C 0.7845830557104823 -1.2704220854879273 -0.1298696033926042
C 1.8275530079491125 -0.4330218125792112 -0.8247509697454894
O 1.2087512140010368 0.6785607699155279 -1.361376426444722
O 2.0950727225002965 1.4350573253232388 -1.978579670556473
H -3.3826190717894518 0.9754589320624236 0.8341360404897891
H -3.785420690468901 0.3877035041403803 -0.8624803754451303
H -1.4993296518014227 -0.020697913846359602 -1.3598749597730702
H -0.1090496108151542 1.5108421020644103 0.34140621931696924
H -1.238177380822661 0.9164703364635626 1.5973462502920714
H 0.8223939440117157 -0.41655496566231254 1.8016552763472113
H -0.6585605708565663 -1.3066021896775384 1.4530917527398632
H 0.10376060785850208 -1.741424210335736 -0.8642219879306494
H 1.3521038870224578 -2.138998884192599 0.3208413887978544
H 2.3122851987902253 -0.9855505782746462 -1.6619458574159014
H 2.66350897721678 -0.15230603745174592 -0.12931527771390736
H 2.898633168955845 1.5556143048302558 -1.397957773010379
