23

C -2.16081385415603 -1.112189178239763 -0.18719210159145924
C -1.5332265380130428 0.23805060225920693 -0.17189323956174332
O -2.289100224873706 1.079480218781757 -0.983415246671212
O -2.840304921986414 2.0411072647880175 -0.30904876029826306
C -0.0965181271694841 0.2593586996760148 -0.5972152282868555
C 0.7970827284198386 -0.5819829251099198 0.2658497206790466
O 0.7760892214050329 -0.15389870824076637 1.590437576051827
O 0.3081996027983493 -1.093805554690275 2.3781000419064853
C 2.2030021024203297 -0.6214927074382254 -0.2663751513104257
C 2.8504161983569882 0.7217178499866467 -0.349675426122275
H -1.8670712677558605 -1.735526818926742 -1.0609355902593374
H -2.0284155022369394 -1.6786343121376868 0.7741506671963964
H -3.2657132248317913 -0.9711198835766796 -0.27724103649662485
H -1.6112949397140834 0.6340738247366567 0.8693431171344642
H -2.3296038912139947 2.868429507295793 -0.26302681958350016
H -0.021323130069687835 -0.13516636852578848 -1.6361210328388989
H 0.2509160778628183 1.3123103623792127 -0.6156865916145536
H 0.40608343544621234 -1.621228752075011 0.22798759713323488
H 0.9950157213221347 -1.4334040637790018 3.0087119481097466
H 2.320250054643569 -1.2428918656103647 -1.1532954118462535
H 2.832742954080622 1.0349383676399926 -1.42887941240156
H 3.9350616650636248 0.6955402219922402 -0.059965657696793545
H 2.3685258602014674 1.4963342188147357 0.24538603836860048
