17

C 2.966621157810305 0.6808979862805405 -0.3486462565760676
C 2.190052573426517 0.3204383713971406 0.6649644877596561
C 0.9616507257131636 -0.46338995019467843 0.5383164556989549
C -0.19654406179366338 0.26630084386757913 -0.050203175318823956
C -1.372952022866316 -0.7128990441930068 -0.0984832539783743
C -2.6039549014117376 -0.09249124988163483 -0.6744485202208889
H 3.8594956674625407 1.2544909127326274 -0.22532198023338343
H 2.649099833093744 0.3594948614399782 -1.3433336157153954
H 2.4977920432844396 0.6352560255358592 1.6558803414620022
H 1.093328112023497 -1.4934631929076516 0.18910707881643826
H -0.02963477656015287 0.6524829628516668 -1.068836536714745
H -0.495715441821113 1.065826738594604 0.6631040255667985
H -1.0800111773997678 -1.6290823136152728 -0.6510398421304552
H -1.5997773717339077 -1.0108483878506316 0.9629840739240972
H -3.1404286635729406 0.49489982371658414 0.11585248746958782
H -3.2797084266266707 -0.928011688871747 -0.9886060430433091
H -2.4193132690279664 0.6000973010980423 -1.5052416761352223
