17

C -2.1347312631569992 0.5875621335362727 -0.7204326341406327
C -1.5834051707342842 -0.28819852964418213 0.10573497914342442
C -0.38088844842233893 -1.0797571317613681 -0.2660385971334626
C 0.7708413871130464 -0.8025210076212606 0.6883558741914614
C 1.1505557699800104 0.6686663274272944 0.6631312931027782
C 1.5813060839255033 1.1303358807102746 -0.6897405838619769
H -1.7220051635400007 0.7652723760567336 -1.721335576504641
H -2.9938488659422737 1.1507046030854047 -0.45026821498155606
H -2.034964640587231 -0.42054871281896195 1.0802811871516504
H -0.6114599574751379 -2.176136632396556 -0.13214526612531502
H -0.1116327639231407 -0.9223154617771004 -1.318391849371446
H 1.6710362880284857 -1.3828904193119378 0.4051354644793754
H 0.40774689706733414 -1.0378897729074907 1.7093690529753351
H 2.0273325076868742 0.7706604215614997 1.346040378443796
H 0.3387717415014139 1.3026877495362856 1.0850659978438117
H 0.9596667740022753 0.8016546512829756 -1.5199562867966665
H 2.665678824476467 0.9327135250421081 -0.8162924784963234
