22

C -2.1536088280773464 0.22306343782594434 0.0677585296926298
O -3.046716470019847 0.7497303700884336 1.0054654450367233
O -4.150170614581037 1.1590267790542688 0.4774815057503463
C -0.8781229529855521 -0.2431992541654423 0.7270386589465414
C 0.012366960460345938 -0.7928212219133834 -0.37969343813875733
C 1.3188124425777779 -1.290276777804784 0.15653066612578934
O 2.0646754416283533 -1.7711953949799157 -0.9142257816901678
C 2.0602932145412582 -0.2619452530576204 0.9661667601100146
C 2.3829589033580048 0.9701651467021501 0.16062148730689207
H -2.6596229122879254 -0.7011776335242556 -0.33483659912140856
H -1.9287400680102373 0.9199711305024237 -0.7508560294962512
H -4.118833505752558 2.113426532856872 0.172740607157407
H -0.4017562000914489 0.6399378628375257 1.1866924000774557
H -1.1001065590095016 -1.0330099878941892 1.4594960496269243
H -0.49395434439623676 -1.6329859464714802 -0.8783789897738966
H 0.18314501294518984 0.02140895836268264 -1.1237443296349592
H 1.1262530709136886 -2.1617316107843374 0.8236050150418063
H 2.9986493872438134 -0.7582628621965632 1.325910991463061
H 1.435765212729727 -0.020125197866757732 1.843749314267838
H 2.0697839234714714 0.8756294497071868 -0.8939550663327722
H 3.462903148437738 1.171082099908431 0.20529220190534522
H 1.8160257369042476 1.8232893728128452 0.5855086549372193
