23

C 2.7071058057565867 0.234548600752514 -0.6235811675222493
O 2.9289893180527673 0.10004317160680672 0.7444570965250287
O 4.01853045747515 0.7309704136143371 1.1189033977613205
C 1.4348474575916836 -0.5253231367943154 -0.9507318540622091
C 0.323051665503747 0.09888944117491404 -0.14284096675021704
C -1.0065737828857189 -0.5756931092809316 -0.3831704478037157
C -2.036356706308564 0.13002701123935229 0.47354952389719446
O -2.0679057664023626 1.48499101964555 0.07416172554327181
O -1.7478905354113503 2.2371693918865203 1.1173852458566875
C -3.3568671983729224 -0.5330841567015808 0.2691868448463861
H 3.5633584241218594 -0.0953992672714276 -1.2382291171569868
H 2.520383017777271 1.3045839253781173 -0.8587025300005808
H 4.39013614393938 0.20135021747457327 1.8789014075054464
H 1.2276518214011296 -0.5490828057041086 -2.0217996761783796
H 1.540653175209306 -1.5739454867552776 -0.5916421573455491
H 0.2019651567162379 1.166594296973014 -0.4235219234686875
H 0.5813176373827389 0.05635935496469757 0.9246586130124843
H -1.0089067184441018 -1.6376452163738757 -0.09908142313666585
H -1.3418889909306642 -0.45894930942368267 -1.4340028721303208
H -1.7570001400155932 0.06326849765544189 1.5349295437289232
H -4.098607990650747 0.19787091981700167 -0.11954472098884628
H -3.292493307541341 -1.3375828504806446 -0.4704507149252256
H -3.723498943964474 -0.9757766810737438 1.2211661727928547
