21

C -2.168611961200226 -1.3399410539409766 0.25808923418435026
C -1.7693731268296273 -0.200969482277592 -0.635853920715061
C -0.49841764654434434 0.47510210302397937 -0.20731519971289877
O -0.24450881735010194 1.5055966655566122 -1.115754570421466
O -0.21233269376014863 2.6739104090761554 -0.5369079578382892
C 0.6884077664431915 -0.42248838754514856 -0.18362970697221997
C 1.8852845788287904 0.4015956530996824 0.2660955466224174
C 3.1442280702177037 -0.395316776134251 0.32946885407303017
H -1.400036869981415 -2.1535689983519677 0.24510287816606274
H -3.0937096916734013 -1.781749852045471 -0.16791022701092043
H -2.420921592481863 -1.0190140084733919 1.2829770947837689
H -1.6652230006947968 -0.5891093483882311 -1.6676822545833032
H -2.5994884067027453 0.5350527621629034 -0.6407724208248493
H -0.6067349043712277 0.94467095126372 0.7873370617638339
H -1.0760460699969063 2.960784741971117 -0.15861824021539314
H 0.6058352236434686 -1.26220181107351 0.5301736545251621
H 0.896368400896724 -0.7881803528283363 -1.2078561257058766
H 1.7099241470300253 0.8852316557739446 1.2409573532265024
H 2.052978943438982 1.2410005819612562 -0.468025670009883
H 3.8395649577581863 -0.1967757764729229 -0.5136981165969261
H 2.932812693329729 -1.473629676357574 0.42403818656274744
