21

C -2.5389590521800938 -1.0956811419145693 0.13289709035158573
C -1.276246730563723 -0.6746519544615917 -0.5392204191144488
C -0.7492234848274937 0.6939836396663335 -0.16991181061223873
O -0.975154819434877 0.9522930455602417 1.1735253698270514
O -1.3896430850904309 2.1723947768870775 1.4045304050906253
C 0.5389299672688324 -0.04005775834624724 -0.46804540427101227
O -0.09161635973540604 -1.203305323524872 0.02706354338194678
C 1.733957309130992 0.40717581369364586 0.313616586100777
C 2.9107714394464717 -0.44099668083548915 -0.12545293917345948
H -3.175293770008057 -1.692427954408301 -0.5787606636875723
H -3.103440641806478 -0.2640593216673689 0.568551567004958
H -2.2600881698025352 -1.8112787580591052 0.9550399823805515
H -1.24152544402772 -0.8031552028621247 -1.6316156916099191
H -0.9311153160170718 1.4991975344201536 -0.8758391437610042
H -1.1287937324140362 2.7136044814438365 0.5946066153871257
H 0.686028476842629 -0.14756076491611955 -1.5414496111768616
H 1.8965714151278337 1.4842633147456648 0.08534950822889467
H 1.5574481467460801 0.2943224143663024 1.3976336710770894
H 2.7933562489541703 -0.7632349342220148 -1.1789246385784427
H 3.8755715876744383 0.09171572837202037 -0.029710781641624034
H 2.8684660147164682 -1.3725409539374671 0.4861167647959319
