23

C -1.9461042098248051 -1.5366893390307688 0.08390259332482039
C -1.739042490531201 -0.0856335255060787 -0.224346310094782
O -2.816279484063982 0.6403415948181771 0.23663149909707243
O -3.513670765680965 1.2157028219165003 -0.6890488325484281
C -0.4114253974664018 0.44089050582108985 0.24089453363559624
O -0.2720549878167999 0.4528765170891342 1.6065528853010107
O -0.021333494750374795 1.6795364544326812 2.0243107020513844
C 0.6620155671417555 -0.4448997041835955 -0.3912285163954536
C 2.0347794881362864 0.06000482122305438 0.05953479710095251
C 3.0895394528212794 -0.8237624972581344 -0.57193240805959
H -1.5726853011263713 -1.8500712103851764 1.070565717629104
H -3.0199583152852774 -1.765964421196614 -0.036819112657222465
H -1.741844909886097 0.01294268926372707 -1.3470829691271704
H -3.769607721748387 2.152700444647652 -0.48843750924835744
H -0.28065124574781586 1.4516703908029336 -0.16740933859804452
H -0.24875635022574355 2.3658840537934234 1.3558500828550535
H 0.626996662212662 -0.36171338709178313 -1.4954505236506275
H 0.552018168385058 -1.5046081284541297 -0.08505354256739765
H 2.197029797320987 1.0972487141916576 -0.2585473815822138
H 2.141583146465467 -0.05719257935742718 1.1631735746098502
H 3.471519372199187 -0.3397118122209889 -1.4815199333748073
H 2.62821491214958 -1.8124957455715585 -0.7410799641905723
H 3.949718107322056 -0.9870566577437857 0.1365399564898005
