23

C -2.6699679792548876 -0.19373181612187523 0.9652949177888429
C -1.7172124276895357 -0.4096607518019052 -0.18211363616264167
O -1.8846994606143628 -1.724587342488676 -0.6288728360548524
O -2.3186876945198147 -1.7656500776752257 -1.8671510623725258
C -0.269142128464743 -0.17058593849933357 0.24744363904597233
O -0.1592876594027464 1.1248187350478915 0.674124521788738
O 0.0846513886338817 1.2507366319699076 1.9543333486250212
C 0.6002128414864846 -0.5290338258555366 -0.9019096606201086
C 2.065764517579737 -0.3587687143984275 -0.668135230951105
C 2.500805233350638 1.0163897655252283 -0.33553410803774275
H -2.4218774523476294 0.8181774629582785 1.391279584328758
H -3.6902758278890815 -0.25096281588652003 0.5868848971702054
H -2.448493156692137 -0.9976462354979809 1.7198391037176983
H -2.003258934791739 0.2550212320469692 -1.013931711879124
H -0.11649999894925446 -0.8335779405999931 1.1328160260775204
H 0.7322077830516225 1.9308315441508432 2.1874523096420044
H 0.2394262863614261 -0.002715578728431381 -1.8072387194762491
H 0.43372936580273436 -1.622068673758919 -1.1169790563450481
H 2.436998651533599 -1.07453629780429 0.09263016736947179
H 2.578703795456319 -0.663316204044658 -1.6242838680763019
H 3.5569526951817587 1.1492149031410632 -0.7109865026819632
H 1.9150905430267022 1.8114553487875846 -0.8415916169973933
H 2.554859619150881 1.2401965895344869 0.746629494100785
