21

C 1.8604490225857402 0.2231192049272194 -0.1346243295528099
C 1.4817684115780152 -1.2255997712959312 -0.1280721748000079
C 0.09217604563087169 -1.5164170611311871 0.26179367331045883
C -0.815918294482084 -0.33732293894737 0.40856839460034416
O -1.56779023158221 -0.17283778665154959 -0.7563385958149688
O -2.847125612079398 -0.35792666300584447 -0.5714084347379389
C -0.13526409514008847 0.9423815114055474 0.7589805834274346
O 1.2280674313362936 0.8370468391411806 0.9375279514389459
C -0.4824237756813805 2.013960457523984 -0.28313421647898745
H 1.6209778575097935 0.7062874275012432 -1.100820026556793
H 2.952287154396255 0.3300250808300856 0.02816756381188167
H 2.218147637802452 -1.7491771495661583 0.5500962473158666
H 1.7386275570045941 -1.6282457698512431 -1.1519056019393514
H 0.08811006120748784 -2.155290031481974 1.1922873431023524
H -0.35525399041425654 -2.193395979952657 -0.5228375891667241
H -1.5576033129325524 -0.5932551608981413 1.2089056929675648
H -3.010999717157809 -1.2538691367299448 -0.21893761789652924
H -0.5413343873153307 1.351766207200855 1.723925643381575
H -1.5917713243804459 2.1712828465666725 -0.14112237666410482
H -0.009798798395928612 2.9683917993254636 -0.06806719461839479
H -0.3653276394901086 1.6390760750896534 -1.3042891004702089
