23

C 2.6564346245012467 -0.22429095227072784 0.4399570500037488
O 3.2872643195336293 -0.021259773564313387 1.6696053520526044
O 4.572134349659384 -0.25685210792012564 1.6176454823348514
C 1.1935272676903594 0.07720455137250219 0.6286729697617086
C 0.39949943884827716 -0.10765261858894347 -0.6402954485253689
C -1.0588246711694644 0.1982879707042711 -0.439725209572377
O -1.1656798056445172 1.523006114291914 -0.025337322206379697
O -1.7944807660017048 2.2376161704435393 -0.9261179720591398
C -1.7047856700439936 -0.7258574023300195 0.5690630787470623
C -3.1734216739278507 -0.2926276704580268 0.6610498057513526
H 2.840230905599897 -1.2784958068062353 0.15641258081636572
H 3.096554473180577 0.41480321481997673 -0.33386866307324675
H 4.8158741778851635 -0.3296023742640793 0.6594713813528474
H 0.7338908551619756 -0.4706961030778435 1.4480316673044373
H 0.5375407673763246 -1.1499900106610959 -1.0338644998092243
H 0.816456843962506 0.5709232929049516 -1.411833295964278
H -1.543951633144421 0.11730503052098425 -1.4329633575339977
H -1.086082143062581 2.5143762386901543 -1.5900087692900382
H -1.2951789101867115 -0.5671006802694971 1.5861338317242852
H -1.626979715346341 -1.7759757503144011 0.30522413840986046
H -3.768740803046881 -0.7459355460882683 -0.13833725050642157
H -3.1779342486341755 0.814562424905758 0.5764972811262802
H -3.5533479831907133 -0.5217482120405215 1.6861922117016934
