21

C -3.533914802804813 0.2332205011127326 0.44518929696413967
C -2.1405115753635404 0.478143271216878 -0.09628367265833787
C -1.2982625332093927 -0.6321965284337185 -0.3316543215864599
O -2.1048700717222317 -0.12033349572461693 -1.4724715769889825
C 0.1321850212223582 -0.6324112375324662 -0.696820095363569
C 1.0405815022483265 0.03084338026591107 0.3098398175197496
C 2.4541464680541023 -0.08234079609407319 -0.26196586616627643
O 3.381168327144315 0.5045309322621411 0.59726263163035
O 4.596215542269019 0.4356209613567549 0.15878620015222308
H -4.1771589410365335 1.0665013412042927 0.047451406446010744
H -3.942440064285492 -0.7404401113036813 0.11101679531085457
H -3.5273613234324728 0.21749361705515363 1.5532193552837599
H -1.8474831007527956 1.5305558979505745 -0.09447136836243976
H -1.6780470703081791 -1.6517968975570927 -0.017347542628898666
H 0.535026900499951 -1.6769143017632255 -0.8157778364660369
H 0.3390660662985733 -0.14520884636253625 -1.668090135564962
H 0.9776437125886431 -0.5073187023753146 1.2776274534915817
H 0.8169343011296173 1.1050763793161864 0.44671291715097455
H 2.6756045666853043 -1.1455151176638805 -0.43093649084188007
H 2.52610773855287 0.46965133207835436 -1.2222544302235698
H 4.775369336222401 1.2628384209917203 -0.3604322460485063
