21

C 2.556301907169863 -0.015341847612835004 0.6710791361551433
C 1.1420146544689174 -0.4246635833431802 1.0872937173171249
C 0.9041275811417019 -0.003992582475683341 -0.3281317977263874
O 1.9585732024033078 0.9035252891768788 -0.19045520578429487
C -0.4107186197171501 0.6468295414644827 -0.6261804791715218
O -0.844410772241177 1.5251578002875779 0.32216504820928293
O -1.0042362114897583 2.708793263065274 -0.22570157015124223
C -1.4613636760222783 -0.443517558812164 -0.8314149560027796
C -1.6043865586438566 -1.2952990030001887 0.3940029401717995
H 3.1676138820801922 0.4114107886528877 1.4798442975720871
H 3.0155443636300627 -0.8469202107533984 0.09251872210081656
H 1.1256782008947948 -1.4835961534468938 1.3239545474390717
H 0.760338752496445 0.24874592341089308 1.875454995218799
H 1.1482851730800854 -0.7967657126736412 -1.0374577997532244
H -0.31021042210763694 1.1646051555441628 -1.598580400984349
H -1.5687535819333824 3.301850673573154 0.3636197335951977
H -1.1786222529807828 -1.0952403263186115 -1.6823405304811128
H -2.43179526796328 0.024077701495411736 -1.1278589681247293
H -2.6713685566275145 -1.6564549571855802 0.42636683175128515
H -0.9239877921738436 -2.1633049249128833 0.2800755272818598
H -1.3686240054647691 -0.7098992761356755 1.3207478104974553
