21

C 3.7289778365758517 0.12573737355609527 0.18008572775257614
C 2.36165832715914 0.32661756847870344 -0.18868930944822393
O 3.258634429916817 -0.5694645281814005 -0.9555694063879088
C 1.22289643182222 -0.4441927642495398 0.36877489433291505
C -0.06899313011804242 0.05735907242540181 -0.26938114997956547
C -1.2618193675843736 -0.7143258028459444 0.2809394737587406
C -2.530763847109063 -0.22048809081156806 -0.3468131718294042
O -2.720069934993653 1.136905677054985 -0.07836336058583859
O -3.82751810381647 1.5860669291909162 -0.6216102876609655
H 4.46869925307539 0.9182074123206183 -0.10494792071657333
H 4.020523563968139 -0.45095496142609187 1.0702337875774732
H 2.0907819394207734 1.2282262496559395 -0.7926156922239472
H 1.3434821964574652 -1.5339986798165222 0.23393638199393757
H 1.0972260620066725 -0.28490849831912085 1.4624960095751498
H -0.24696931829280758 1.1133163147347631 -0.03479948144680596
H -0.014202969536105253 -0.08867653242475186 -1.3537130331399696
H -1.1145116113332212 -1.7937010682187042 0.1141536530320575
H -1.3184121774637496 -0.49712576459613106 1.3698528265445917
H -3.402018893491755 -0.7859237175505353 0.017393179652977493
H -2.5129665298359174 -0.3245060389588356 -1.4573792609401475
H -4.574634156827433 1.2158298499817164 -0.06393787030480204
