21

C 2.959791350676847 -0.09808813813511716 -0.20032216508955786
C 1.570099048466496 -0.28169560633856533 -0.834861868803064
C 1.1175678682916224 0.6759955377386929 0.22774745847760144
O 2.2822687562097483 0.3207888548774622 0.9605705756132565
C -0.09677385012296695 0.38448820392519206 1.0100077170973003
C -1.3872707273922946 0.26275540560151434 0.31755761751658257
O -2.4242341090983777 -0.009743263175373124 1.2500522987614704
O -3.406710561857994 0.8313770350801136 1.1501332379871854
C -1.4211071123368182 -0.9390438475550901 -0.596795671587346
H 3.473850543221471 -1.0641179142089428 -0.03170105957199441
H 3.534449299557224 0.733789122982885 -0.6076292087622903
H 1.5146441242945852 0.050115500352632646 -1.8745591154394998
H 1.2298883168420698 -1.3369443128351963 -0.6649448719716738
H 1.2422694954747646 1.7518010085605809 -0.0439093487703648
H -0.19375258360720593 1.2260843653828377 1.7644666893663308
H 0.11711750735669778 -0.5585760657132819 1.5951472302969891
H -1.7216729786091756 1.1401764247742725 -0.24541489507891884
H -4.038819560118991 0.603318605897837 0.4095091037396021
H -0.9944558191957711 -1.7902559129154996 -0.04146089781193269
H -2.4863957842928794 -1.1618637697829541 -0.8573538949043987
H -0.8707532237589697 -0.7403612345140139 -1.542552139980846
