21

C -1.9072750072629931 -2.0908276502165344 -0.3961478837716961
C -1.5521368085202016 -0.8028928917563625 -0.9879341786197054
O -2.762335078149293 -0.9272129926522749 -0.33957962883797393
C -0.4825489060481276 0.08127441199858584 -0.45809988254706824
O -0.9723715634756077 1.3836926079352885 -0.4069825573755129
O -0.2902484013495965 2.1727049989008687 -1.2093385507797465
C 0.043410361796757474 -0.3303358782905405 0.8879624528946739
C 1.1190589764254624 0.5726134666884105 1.403043668921356
C 2.3242514843992677 0.6459048061692129 0.5220249300817345
H -2.2768063936249217 -2.924279130786214 -1.0219141921201207
H -1.5958793815037327 -2.396401755041334 0.6128570410636494
H -1.6641082011877468 -0.7416446144899586 -2.1107037269416904
H 0.3721060299730195 0.062360182173594375 -1.1804837542614568
H -0.06502054425506103 3.001413840025662 -0.7365628217939325
H 0.38952280215115426 -1.3570811677130643 0.9387066825314554
H -0.8186305502567426 -0.24552046660836263 1.6040185209777655
H 1.4253319824532014 0.18716506728278356 2.402334642090031
H 0.7445814848643216 1.6173100133499738 1.5900082607865957
H 2.3061806347634817 1.5865160439066788 -0.08514772611578489
H 3.240717577297282 0.704972525584875 1.150525581398435
H 2.422199501509931 -0.19973141646146553 -0.17596671234209982
