23

C 2.499760288108898 0.5617267717539876 -0.19408155188447426
O 3.832706012264174 0.16288699145619576 -0.19787305272788755
O 4.658417553430956 1.1404215018263038 -0.37932504709084514
C 1.5580435127318508 -0.5873944759764943 0.016709537318722285
C 0.14904528994128868 -0.04403095334540903 0.002933268455237998
C -0.8783626721797181 -1.1426131798773418 0.21014988359506664
C -2.246116919580867 -0.44943153232481403 0.17280985007423527
O -2.4017485106465646 0.16712772457773234 -1.0587261538189714
O -3.42216364036257 -0.32408450119676174 -1.745347486057379
C -2.407894894126244 0.494231550305368 1.325979723914235
H 2.3808785754965602 1.2377592540445443 0.6999847679937317
H 2.2324160260233605 1.135947204926487 -1.101429275940184
H 4.899138172878581 1.3339254965006495 -1.303805224795827
H 1.764152613159624 -1.0169937155086197 1.007901660182465
H 1.6589476292181582 -1.3874454619816698 -0.7271775098055706
H 0.035013867910675116 0.6484947071620233 0.8740600091523639
H -0.10625287033731147 0.46615858889756906 -0.9325683026468479
H -0.8092845425648212 -1.8915915793386648 -0.5875498085267422
H -0.6962171020772222 -1.5778511135790059 1.2066445592892225
H -3.045666520793123 -1.2255870938506042 0.27330008872869815
H -4.225686961929108 0.21233548253388013 -1.517721170820166
H -3.493328309402069 0.6124742902809632 1.5299362697804235
H -1.9357965971646838 1.4735340427136876 1.0870634211354027
