19

C -1.9203446888296574 -0.24765797187676802 0.9750523430477737
C -1.9743285875217793 0.15308843938773795 -0.49491003365581765
C -0.48438009297592727 0.4792681814940624 -0.6669172285243959
C 0.09695347200876257 -0.6691370975000156 0.10216779147169598
O -0.854440591799986 -1.1368947911248126 0.975196588598913
C 1.3171857458200054 -0.23200876066378223 0.9090187950699414
C 2.4019423637210466 0.31348140735950825 0.007007062103099435
H -2.8792540406586413 -0.7111949328790211 1.242363602591065
H -1.6653167225117116 0.6500076476283594 1.5638798853774576
H -2.6102955850731075 1.0110267403318467 -0.6852517404621067
H -2.1617115330864656 -0.7260264710654597 -1.1208353403486424
H -0.2079241795033712 0.5074485157961209 -1.7207570139130448
H -0.3079686841969732 1.4687254289332938 -0.18247471700586612
H 0.3937902289432317 -1.4550674867597546 -0.6237393189215786
H 1.7173555488454435 -1.159052459861954 1.383438896389701
H 1.026123069953257 0.46963518729644954 1.6945421719607172
H 2.3900308831334725 1.4196631058393605 -0.04420058548676061
H 3.399044459095045 0.013375312929472999 0.39552708657727115
H 2.323538934637352 -0.14867999526467368 -1.006950194535223
