18

C 3.214781668936591 0.08813774519597228 -0.15137187412579042
C 1.791997305267775 0.5108210708465183 -0.06215949322445286
C 0.826610921825796 -0.2613438602946729 0.3921399497792535
C -0.5596186961422513 0.21823883712952852 0.45386680562636894
O -0.6874801434614687 1.5275007984063877 0.01575155693673134
C -1.5318963612348646 -0.6691056395567279 -0.30089170896784406
C -2.9092615186447617 -0.02337019168823192 -0.12935180216615844
H 3.9067455732144647 0.9587222357254713 0.007918275506241084
H 3.397197572592658 -0.7321276712970927 0.5656209303098827
H 3.39220454877554 -0.2585714879057146 -1.1979161851353461
H 1.5629461359224035 1.5153787672551573 -0.39604503402547414
H 1.062249657139398 -1.260352265470478 0.7227757968567714
H -0.9061813252870683 0.2147583812527353 1.5231567074439998
H -1.616587710848392 -1.668829787616422 0.1748221901487662
H -1.3347279190373085 -0.712367499886083 -1.3725141758216224
H -3.6801698885792895 -0.523045569339796 -0.7179644920921535
H -3.1468364819971497 0.04736125795550176 0.9541331392201068
H -2.7819733384420746 1.0281948792879536 -0.481970586269273
