20

C 2.449343680032699 0.6235785428705256 0.45255735637669675
C 1.2445350448020118 0.27976289142244365 -0.3850164743155396
C 0.3189008518714935 -0.6822382143215558 0.33940448911086374
O 1.0815703608386487 -1.8352974494682996 0.5922339934268585
C -0.8482753887243231 -1.0893136652871402 -0.4893071865514775
C -1.7213873967946098 0.049028232872319305 -0.9196682402627409
C -2.2493797038176333 0.7306095365194596 0.34484061531005816
H 2.1999978245456964 1.188466751983328 1.3646561050949166
H 3.0896996703004183 1.290405671815545 -0.17177878972336066
H 3.057278016096462 -0.2782060356111116 0.6580951821769426
H 1.5995827095037374 -0.17019581852343083 -1.316282300182733
H 0.7195985386079532 1.2287469630103591 -0.6526472798206386
H -0.061014474939655214 -0.2278933148862612 1.2770469277383052
H 0.7339780605528096 -2.3581934786876806 1.3339556170732425
H -0.6287050819373081 -1.8113012148831111 -1.2816284807807006
H -2.590921522134305 -0.3662291289272912 -1.4638179404585316
H -1.2377883737709447 0.7805337606475166 -1.56791438645568
H -2.65249377845644 -0.03706058267223789 1.0364502876351587
H -1.4243542818206705 1.3054384167920687 0.8368137888648809
H -3.0801647547560007 1.379358135334546 0.012006715743476436
