23

C 2.8903171463739197 -0.1577463759275959 -0.17097723458755187
O 2.961007377540286 0.5982856124438592 0.985779239773593
O 4.092861421659831 1.2607436686830575 1.0176048428818198
C 1.5871084414039034 -0.9198574284872483 -0.2069830593736194
C 0.417170405817821 0.042667025956487845 -0.17732366229430174
C -0.8611495263173324 -0.7706830230741147 -0.21455919175812954
C -2.0634924447135683 0.17982682342704576 -0.1855373672063601
O -1.9896318663338803 0.9159601043088389 0.9876724470084453
O -1.8694326079832257 2.184084265412912 0.6686289377824607
C -3.349814887380672 -0.6095379684835925 -0.13858193749894307
H 2.9559997802312754 0.4550322620265931 -1.0963871539683685
H 3.7196531266804342 -0.8683879775657308 -0.16463356604930876
H 3.9336685563016536 2.2525108044904067 1.0663028923125242
H 1.5068565667976512 -1.611480129704152 0.6611128092385269
H 1.5118520495713503 -1.5292751356257521 -1.1297567982369068
H 0.5075178223180806 0.617237264901238 0.7664070985402578
H -0.9314840198029037 -1.4509486682775403 0.6452116642332529
H -0.9127259636880889 -1.3308613968738179 -1.1702320287476184
H -2.001573414398225 0.8522138475348898 -1.0341295748388946
H -1.0927619812335305 2.259902346050388 0.059026840004404134
H -3.5661869828091852 -0.8492476941750877 0.9264986401451216
H -4.1345251035851955 0.024275371117605676 -0.5872665300023912
H -3.3112338964503767 -1.5447135981587257 -0.703467036193615
