21

C 1.8272989414973537 -0.741400884338944 -0.5811442443401929
O 2.8648570180770934 -0.2772868162139235 0.26162795562659164
O 4.01915104234376 -0.365685889407301 -0.3557819980276559
C 0.5522049215528185 -0.5967248065187166 0.22108502509151035
C 0.38788360704476715 0.8986357111979629 0.5133666504826008
C -1.1242888638069928 0.9431537626578073 0.656703343714727
C -1.4933501790724588 0.0038117720096502027 -0.47340717414795497
O -0.571259791241556 -1.0025509652036841 -0.44265417377635036
C -2.9149525828546996 -0.4550737479733345 -0.27129602828445476
H 2.041205613965136 -1.7713227085334022 -0.874419856926043
H 1.819856158608914 -0.038712204748847394 -1.438998279592904
H 4.544047944995351 0.46151636626012 -0.3339751081456035
H 0.653735486620735 -1.0825219752799262 1.209259615856964
H 0.9248385016943017 1.219382983732559 1.3951135818327134
H 0.6817470874756317 1.5073449118640214 -0.3652115844092969
H -1.5451404494288545 1.9325524946066346 0.5040735437725269
H -1.3963230213539892 0.4595067449879953 1.608018441442928
H -1.3788831460559257 0.5717296473392196 -1.4129962250308958
H -3.3602952876822143 -0.07419056343947432 0.67461371916726
H -3.5296282034539237 -0.028692725954705563 -1.0972343820862165
H -3.0027047989253197 -1.5634711070436933 -0.21722298805618484
