23

C -1.845499023266086 -0.5200190546974361 1.3104672884807156
C -1.5440328880670575 -0.13796000752348467 -0.11919551904548192
O -2.2989655808083187 0.9879820775966163 -0.4567707574868728
O -3.1514285069765404 0.7434241946865267 -1.4214915360032452
C -0.0951685471600865 0.21471915132671715 -0.32420682355849834
O 0.19943171957527467 1.2869160573287197 0.5049054946044179
O 0.5309862041652084 2.3197787515723505 -0.25673596244772057
C 0.8224737068190969 -0.9527890443617445 -0.06766206347472725
C 2.241029849343583 -0.55096298982309 -0.2840890907664356
C 2.7008460268431933 0.5626739763864791 0.6057356744730226
H -2.9478607105062173 -0.612636068779903 1.39241013262801
H -1.3444349892979508 -1.4851209459985835 1.5289458928785475
H -1.4777588052038726 0.24919328533663893 2.0162007481557107
H -1.882598919974161 -0.9587415598875709 -0.7808173398695034
H -3.2704055819734945 -0.22790739524618817 -1.561643073394052
H 0.020516571172189958 0.49233021266615096 -1.394997140612556
H 0.01262322729572768 2.274387988610508 -1.1213311904176022
H 0.7071282836263817 -1.3791401184722696 0.9396475876718109
H 0.5790823953734712 -1.755361211183794 -0.7924612291487293
H 2.4581664345692933 -0.2873221926088071 -1.3396091996375246
H 2.8851358405797143 -1.4467560605047614 -0.043625613386415935
H 3.596632500554737 1.0304818301842684 0.1007154523506322
H 3.1041007933159106 0.15282912339267593 1.5656082680064791
