22

C -2.497803914917831 -0.6268292256051656 0.2690231189433779
O -2.84586073544768 0.5382066310320802 -0.417897096875184
O -4.1352690925428925 0.7510472367478199 -0.29935825960393303
C -0.9869139935931144 -0.8701401005195987 0.12654082312504375
O -0.8064468609622918 -0.991570992439652 -1.2698164320907588
C -0.27083085558973546 0.3114296992454993 0.6974931821688569
C 1.2159486492714722 0.2494548772111376 0.6508272756873776
C 1.7984083450535941 0.1326592590724509 -0.7158991538090244
C 3.3316833670190427 0.08329447988945456 -0.6709424275385576
H -3.029757030658701 -1.4699624068824257 -0.21843030448792963
H -2.757545407751205 -0.5948355882788474 1.3254626772805314
H -4.295906444464911 1.640197090828658 0.11001656624452295
H -0.7857800116010272 -1.8150596513261772 0.649878619766208
H -0.634376694125393 1.21092919081161 0.16118509545436893
H -0.6333125431379971 0.41795725977845927 1.7507150760323655
H 1.5797134511359365 1.2350408571569451 1.0692946808416801
H 1.6386173654955625 -0.510277763167627 1.3370808268193826
H 1.500551487503159 -0.8553279347569043 -1.178133538895109
H 1.5189085711495611 0.921335608279305 -1.4072790788027492
H 3.732464021045248 -0.6384885073276124 -1.4123678727686766
H 3.733317833036469 1.112378579775666 -0.9074194838586779
H 3.630190494083061 -0.23143859952514292 0.3500257063669577
