23

C -1.891318226776936 1.1313938505485777 -0.30822574599979935
O -2.82657081070034 1.7125792484569513 0.5824552645363269
O -3.1933629985541847 2.841906335688022 -0.005098840487652457
C -1.458846365721417 -0.1515000762092546 0.33562723707148623
C -0.4567048967392275 -0.9322602480052609 -0.45411744963177925
O -0.17091137429818132 -2.0830548831250306 0.2870374058413162
O -0.4997058030073217 -3.177864764462441 -0.3200337232433315
C 0.8359101835594989 -0.20572799635679512 -0.6875598212116745
C 1.5049256534213398 0.14206080134688623 0.6271781007023468
C 2.801207836528224 0.8716388914994544 0.3305527959399769
H -2.4185364029941856 0.995067904110326 -1.2534712321057913
H -1.103356811977188 1.8685705719348882 -0.437508353587518
H -2.3683655857020467 -0.7915361322280431 0.4302082050595416
H -1.0860998887619473 0.02161415101208759 1.342182706140381
H -0.9050244709757513 -1.272387614104499 -1.399235773495682
H -0.7483112928519509 -3.8453005604107426 0.3833732360410828
H 0.7420560797086175 0.7186593069740027 -1.261150615239815
H 1.5093776898368296 -0.8837867498402041 -1.2435332221573567
H 0.7789121654204374 0.8253755157082968 1.1578281341981917
H 1.66046931702025 -0.798890920486808 1.1826527807402338
H 3.2421559189754996 0.36421396178961224 -0.5675256303101112
H 2.5503313861298302 1.9159915373317964 0.11295404626591952
H 3.5017686984601637 0.733237868828219 1.1654104949336792
