19

C 2.9313112183808756 0.3995550359131226 -0.683481772848869
C 1.8291444786322488 -0.5063537883395415 -0.17046371602964067
C 0.5024983261132788 0.2093942136798056 -0.06711968755918282
C -0.5064591666039154 -0.7869070405864891 0.449949479977752
C -1.8872496809713426 -0.18980732574750883 0.599608622797872
C -2.4051018313538712 0.31763237790844373 -0.7258575988036488
H 2.709979075128794 1.4614046432712602 -0.5694688738311584
H 3.088684037112047 0.14737534213313302 -1.73897063084963
H 3.886269005839872 0.16664844566228057 -0.14920622474895892
H 2.0954096536111844 -0.8082381511544533 0.8822163151315259
H 0.5463880471900707 1.131573354388566 0.5117764665617879
H 0.1844583614699657 0.4914897128531901 -1.1019764645608419
H -0.5690141979749779 -1.6215839126368417 -0.28032740007990864
H -0.16710946803155666 -1.21158204533375 1.4160313152033857
H -1.9242168243684266 0.5613626127473096 1.3971529835708374
H -2.558546486142579 -1.0257496917874669 0.9004123420861712
H -3.4058117679240545 0.7674725057207182 -0.5187762126199097
H -1.7706526640134217 1.0656648837345417 -1.1972210169117372
H -2.5799801160942684 -0.5693511724262782 -1.3783757628983948
