18

C -2.394464052314462 0.4582327846342108 0.5911140781302976
C -1.8220137945572474 -0.4957862639476029 -0.43476067658611955
C -0.3452633130631916 -0.40901722368551824 -0.4461315547130577
C 0.32696793646756867 0.40490620200731675 0.3496487154942937
C 1.7930662243708302 0.5044166641081022 0.3521838316942732
C 2.428881364308587 -0.4241093045725668 -0.6516682449522838
H -1.9844386645777499 0.14584341960152 1.5860261286379498
H -2.081858197010737 1.4809033808260958 0.30619904952039706
H -3.5122942480008628 0.4056745687691697 0.595006072871144
H -2.2539337708628877 -0.32058441451950587 -1.4436006273381454
H -2.1729140372978835 -1.520763589227378 -0.12131773030566258
H 0.21257921732462337 -1.0370316521790761 -1.1338377092110867
H -0.24159838374425197 1.024533761860483 1.0294148088134647
H 2.186319452706432 1.5175931443124147 0.1865702511907743
H 2.1545014070070025 0.192336741898768 1.3632112756681782
H 1.9905862175289701 -0.18250774163216882 -1.6543525460415827
H 3.5235738946389303 -0.25711725098176413 -0.6337265671510975
H 2.192302747076365 -1.487523227272423 -0.46572753057563987
