21

C -1.5233236236217458 -1.6555063041673577 0.4011903629384497
C -1.9314164067332251 -0.2581997296733944 0.08942397477476004
C -0.5946272022983471 0.43866490541700026 -0.07393775016340803
O -0.7088249040549099 1.303275186360821 -1.1593760399469013
O -0.5625140304263296 2.552811783233392 -0.8483516471705586
C 0.331677086831796 -0.6837911327844223 -0.3853891060367229
O -0.2653624303737717 -1.8710423046371614 -0.07857289126723958
C 1.5980807021706798 -0.5650095890214432 0.45270283249408727
C 2.3169922492139365 0.7332166453184161 0.17462366813500146
H -1.6463356480719418 -1.852979283004855 1.487590470204797
H -2.2183464972063387 -2.3869854347390045 -0.10718916753077744
H -2.526714581998015 -0.25819793221057025 -0.8297441317732897
H -2.5536199129077435 0.21429530133929103 0.8858730163105485
H -0.3985355605038525 0.9613658103051194 0.8704562883543592
H -1.1207296120600956 2.8502067821264423 -0.09427002666561671
H 0.5780883999141856 -0.6916000340742708 -1.4718093625994102
H 2.300157652966864 -1.3886673661036857 0.23745822407371842
H 1.3169879161962545 -0.570811078661573 1.5113208710635109
H 2.701800781510776 0.7783903471566008 -0.8766825127287317
H 3.2206911286652327 0.7384374907941611 0.8218256494469638
H 1.6858744927865366 1.6121259370264471 0.4263380544053041
