23

C 2.856306961621297 0.24465293770301685 -0.06545853840598954
C 1.7138338419873562 -0.6670009405514683 0.3283225837991869
C 0.4234855571917152 0.0757498873619209 -0.015098714100492391
O 0.4533220841498414 0.3165397926435001 -1.384016192961156
O 0.46670364955342514 1.572349335616359 -1.6993668625313718
C -0.7193475696275553 -0.8568581806063936 0.2619518525070448
O -0.4908654673571127 -2.033742368658893 -0.44973965851391023
O -0.42003132517515657 -3.078285980326277 0.3234214200213364
C -2.049011564558105 -0.3061972528471838 -0.15226398392841808
C -2.414109636433062 0.9697978141706712 0.534297147682233
H 2.547971341779711 1.0329168081676745 -0.7824136362958243
H 3.2686179724697593 0.7778566121843734 0.8354570279026411
H 3.6676934153923826 -0.32656563331483773 -0.5843347954569029
H 1.7242052372376346 -0.9093596884895084 1.4084423956987966
H 1.7823414599481064 -1.6101206243526487 -0.23825821564283103
H 0.41612987458633593 0.9926541768023429 0.5757154920581202
H 0.15665583478572911 2.1913226907600314 -1.019452294510784
H -0.7808040307643642 -1.1426361421380868 1.3326689600862047
H -2.828744947407986 -1.043072100587809 0.03289989650283125
H -2.0340966704684305 -0.1032800270640347 -1.2481548005781935
H -2.7979685451225804 0.7669086284545652 1.5600922269768118
H -3.3021046215978984 1.3931492573201654 -0.02023572724509073
H -1.640182852191076 1.7432209977525133 0.5071029398578274
