21

C 2.766098807290235 -0.2587821481922422 0.07600696954384858
O 3.412699452562384 -0.053093521795717066 -1.1168917449710671
O 4.6556999648547475 0.2912860837255723 -0.8450810755521011
C 1.3209122033660925 -0.6618631250445733 -0.09635600069031305
C 0.20235853445983312 0.10119837359313529 0.40894084076219617
O 0.7136573915891178 -0.8592349381683834 1.2475738256457414
C -1.1616604910529187 -0.19832568318771726 -0.14650700850948067
C -2.23538526578734 0.6736499202605608 0.4719231910436868
C -3.5916493791441146 0.34671771752243646 -0.10841200443210351
H 3.2792330242043226 -1.1046403473398092 0.6027565633874244
H 2.8951774505909884 0.6244407958864528 0.7071913837450944
H 5.009224027910706 -0.14787559228706865 -0.03351103506670283
H 1.1355457967839915 -1.591143369703067 -0.6702270188498388
H 0.3806013111810012 1.180908683332994 0.6277241601856524
H -1.1328673024589497 -0.10672923433946961 -1.2433088723379397
H -1.4445437208366831 -1.244174100997993 0.07207392963352419
H -2.0034250391914625 1.720168346757989 0.15640342890427467
H -2.306275806239068 0.564817811647377 1.5555146470369223
H -3.498388087454685 -0.2400359991548319 -1.0595846334715509
H -4.190603615836434 1.2389214360220202 -0.3425894303188857
H -4.2064092567917495 -0.2762111085376574 0.5813114802782735
