21

C -2.1452286900068183 -0.5440737286653761 0.46451394234070065
C -1.2272646732795065 0.4461624096159464 -0.20762157668846845
O -0.5860274176939397 1.1613464955631516 0.7888686467696243
O -0.8883769053768378 2.431977218799633 0.678424451099112
C -0.25738716438484927 -0.24132448011811658 -1.1366370881428762
C 0.6265299256253676 -1.2311432324725333 -0.4551688117602433
C 1.4800178290291912 -0.6393391495699003 0.6203302141522157
C 2.407481073716854 0.43123040776951665 0.13374992424715615
H -1.961682139135295 -0.6364793423721838 1.555539130994714
H -2.045016001390561 -1.5599188063955118 0.025374178310103527
H -3.201894276095029 -0.20536383798122723 0.35913596592230596
H -1.8301579733752513 1.137630378236876 -0.8399071611259724
H -1.0937901781921344 2.8271802793004017 1.5662575548855369
H -0.8890151249492111 -0.8179150951875238 -1.8688577331016647
H 0.3149967090985534 0.4754530631379652 -1.7413347639168364
H -0.03569368984178479 -1.9888700654805043 0.03358138511679565
H 1.194669227289736 -1.7752894896094304 -1.223144225969681
H 2.0707164949497447 -1.429236717367233 1.097189081570759
H 2.948989099724058 0.8232374479910146 1.0354640520449325
H 3.200903251948709 0.05247442723569371 -0.5399821103426811
H 1.9172306223388205 1.282261817569282 -0.3457750564054707
