23

C -1.6172369050244235 -1.0802892868327927 1.1088674222410835
C -1.6911711872197528 0.35052968941570894 0.681552747241071
C -0.789517024613106 0.7530858277574561 -0.42993502160733027
O -1.0703796385817352 2.1368059686599254 -0.6585394371617145
O -1.5403381844205686 2.2236239737203407 -1.8748611551546703
C 0.6676562978724211 0.6716219313138552 -0.2007007284606561
C 1.287656239755492 -0.6419140671567553 0.0997114948953616
O 1.1121561478909674 -1.588711957227826 -0.9215855306372455
O 0.9744513894567918 -2.8103812451812007 -0.4787191484557259
C 2.8287521780381604 -0.3615352291209241 0.030974058947489683
H -1.3581022660964372 -1.7115683496466039 0.25383631928437267
H -0.9939202073457248 -1.2641751451824128 2.010408100826664
H -2.6667802282259636 -1.3900725977771045 1.411676711835708
H -2.7755936424406147 0.5775551789659201 0.4291418405817147
H -1.5216432886862419 1.0000128929851242 1.6002702877671664
H -1.0510385393199173 0.16735786804654315 -1.3460148226521536
H -2.5052653473833146 2.4611981411679458 -1.8929624884052774
H 0.9974310839892011 1.3693294315234927 0.6144857832186195
H 1.1835889029191764 1.0923879619028118 -1.119197387556799
H 1.1332008975708123 -1.0260280002120798 1.1028597860603615
H 3.351015229976396 -1.3132948242684084 0.19440649833946966
H 2.9792104138778703 -0.03386247605344942 -1.0168082071225792
H 3.0658676780104526 0.41832431320035446 0.775931357676789
