22

C 2.0937992680631203 0.7928150123062193 -0.22173608816559645
O 2.8608749987612554 -0.346001167160564 -0.005455829921194793
O 4.102806665037872 -0.21648300958900735 -0.3475101886538015
C 0.6641892101613592 0.4052969107279945 0.2555436036402173
C 0.26406608891813804 -0.7419186641419719 -0.5868942071193212
C -1.0709205842087155 -1.2930489189838903 -0.23587789225516442
C -2.2537439310618304 -0.42350687459751357 -0.3381985093122852
C -2.3571605436956773 0.7751772945322885 0.5227419766880301
H 2.0199836379833767 1.0326467891218514 -1.2951781130222682
H 2.449257869679348 1.6710325381050954 0.35284096675633103
H 4.241076562534161 0.7060663259342773 -0.6949873783575152
H 0.06065692516367744 1.3299467346484586 0.14434371166408308
H 0.7272915657147789 0.14413914825906832 1.3236965334781352
H 0.28879979215706497 -0.48727633251226865 -1.693969231446201
H 1.076823967726498 -1.5263927615404078 -0.46784694183174125
H -1.0326228225330778 -1.831928092782899 0.7691947291344619
H -1.2411641886694322 -2.1460158610330016 -0.9825078402191721
H -3.158295277700343 -1.088216053804824 -0.17511106040159996
H -2.3272929632726034 -0.09328995227685379 -1.4272548297871417
H -3.44357626877253 0.8354192014022058 0.8813166021292943
H -1.7660652732449076 0.8008693825749329 1.4333582789756374
H -2.1987846987414597 1.7006683508108102 -0.0764589284139832
