22

C -1.5042337932962846 -1.3536316368842678 -0.16961836814636122
C -1.5704888417093343 0.12572612124560403 -0.1272389702857444
O -1.66673518373944 0.4928855193840156 1.237598120769533
O -2.812629185517541 1.0865157693030287 1.4943295744363043
C -0.49772746256136613 0.9010333518233027 -0.7870678979974435
O -0.8898318487227029 2.276945142654722 -0.5877178094447443
C 0.8742793055600887 0.8200218768619149 -0.2176022131532938
C 1.4769600110804315 -0.5488152122274431 -0.18852315443228992
C 2.9136158389943367 -0.4781832724463906 0.3840584768525937
H -0.878692920570983 -1.8005540896192713 -0.9549040043761765
H -2.5582916914045515 -1.7234564663600878 -0.42062170781791247
H -1.3299404427771835 -1.8473150163298946 0.8325304107525227
H -2.543085109993476 0.4642910402358721 -0.6086340066428743
H -3.0251704988039796 1.663609071735396 0.7027410973228413
H -0.5355904279016723 0.7577949487035792 -1.8837751888664025
H 1.5826486669767064 1.540327124900559 -0.7300801243553523
H 0.8607175552663331 1.1778288243472301 0.859908128706681
H 1.593273971993918 -0.9958092873017269 -1.1900226506359248
H 0.8778854198278458 -1.2238518556965579 0.46069152930739315
H 3.4430080806963064 -1.3670245569441606 0.048612297816209175
H 2.8333412456941147 -0.4065582663211129 1.4939194008044017
H 3.356687310908467 0.43822086893571166 -0.060620452353862694
