17

C -2.960607940244344 0.7236565922103483 0.15043900529393014
C -1.7444678053875877 1.048259994369701 0.5389795842323104
C -0.7460351311374448 -0.011209679018925512 0.9028051373040307
C 0.4549472262009593 0.12298758385482153 -0.02824376719665087
C 1.50451490542098 -0.909359968169591 0.2750722224342394
C 2.646486562147373 -0.6972702884685391 -0.691989977069442
H -3.2872690510123794 -0.3030364795177784 0.07783963210990792
H -3.6668847555298236 1.4950373311725584 -0.10765248454542604
H -1.3881260737994014 2.0679755902434622 0.6215346836496827
H -1.218341037015912 -1.0188704553718182 0.8174069809146656
H -0.39762730198336627 0.17045816444296552 1.937175544229819
H 0.8841477189166611 1.1261122057771753 0.175020474170641
H 0.1478519423069954 0.04221050933746834 -1.0877446969483773
H 1.0924934336333534 -1.9396660539400852 0.12201405658768533
H 2.8369016099887165 0.39142361414705634 -0.8211462936180621
H 3.5562857829377252 -1.2556790602844674 -0.4092560568122388
H 2.285729914557447 -1.053029600784336 -1.6879267260456572
