20

C -2.2343865996751053 1.0427827474075282 0.5552579572533719
C -1.9228625654389004 0.20316715940834335 -0.662907252234193
O -2.9553946364054893 -0.7060489063542974 -0.8861818366107138
C -0.6756877006638881 -0.58836996631014 -0.39757973243219713
C 0.5243271241029993 0.2873110014099575 -0.10862562866765116
C 1.6958077198818553 -0.6760411061991376 0.13570610487668544
C 2.8954633026903713 0.17491018263637928 0.4240888412983932
H -2.250075180627244 2.1277767712848226 0.3336447368921835
H -3.171604702139098 0.715796023871924 1.056855167937989
H -1.796348652902424 0.8179386337191632 -1.5759918446427605
H -2.8840236449617347 -1.3907367265352 -0.15716154369654575
H -0.4793972427429973 -1.2990911447216367 -1.2119087849892087
H -0.8545018287701407 -1.195900736554712 0.5298721803063542
H 0.3753763185881063 0.8884978552126567 0.8008763046633014
H 0.7981623140141411 0.9350650334413209 -0.9487329898000012
H 1.7908011550797676 -1.2658867380556615 -0.8088809381175013
H 1.4501646298453175 -1.304620772266231 1.0095048611605542
H 3.7791161522191317 -0.11599007109446728 -0.18565812326818804
H 2.7245023016936365 1.257291787470937 0.21207955040583162
H 3.190561736211681 0.09214897222845388 1.4782194974226666
