19

C 2.3939925496765078 0.48424187458558826 -0.665781016424555
C 1.0969695243338775 -0.14032446003910196 -0.3383077171996766
C 0.6988689880626817 0.004137349192477787 1.1205276609982187
C -0.735390881125803 -0.5345352044901265 1.0301868479588157
C -1.0504797542851618 -0.3329608015359733 -0.4294873952864765
O 0.00036661305263332024 0.4088150198915728 -0.9710757710860848
C -2.371587722103414 0.38701300661595345 -0.516180092156323
H 2.487475436455595 0.5806632675055091 -1.759515950993386
H 3.209295421802456 -0.2334661153570654 -0.3608944401045649
H 2.586425968763958 1.4683181893880943 -0.22822473567655618
H 1.1335842690370772 -1.2203252195173893 -0.5645500548511477
H 1.3184099524099306 -0.568704377839867 1.80310412263784
H 0.583335905230798 1.0822554703051515 1.3982938780539318
H -0.6802839055116202 -1.6364340090446663 1.2450702538646776
H -1.4152521697827753 -0.003601977310147291 1.6980511640596043
H -1.1311958468120706 -1.289272511985285 -0.980643810615582
H -2.9926509898012617 0.008275764155853103 0.34711039506324665
H -2.892563783574688 0.07318622544222486 -1.431776014689071
H -2.239319575828627 1.4627185100372089 -0.3959073235528407
