18

C -2.471420606363947 0.8506522518261971 -0.03499769064481163
C -1.8073098367255527 -0.18746620160992958 0.44081494157627804
C -0.9313043606889835 -1.0191669367690068 -0.42835362821894496
C 0.5114411855262359 -0.9899764310446573 0.09362912348586908
C 0.9503980143719467 0.4350650932075917 0.06637408555048631
C 2.3676234037919004 0.6250346661238044 0.5580197481677184
O 3.2056578836295104 -0.11461865396655252 -0.26898764279909043
H -2.373213983666906 1.105526406816536 -1.1015842062740828
H -3.097344365024117 1.435500652651024 0.6123322415261773
H -1.9123023904486145 -0.4269702232479236 1.4892328069220895
H -1.3056510957374676 -2.073702358977605 -0.4919006813204917
H -0.9868147703598945 -0.618966893856874 -1.455066848309831
H 1.1101174761134218 -1.6444997607645173 -0.5602777612616192
H 0.5318607537352424 -1.3551965078684782 1.1194161040402684
H 0.25957427150906004 1.0181412032917903 0.7232040722283859
H 0.8201680521809596 0.8426029490363143 -0.9555166725692492
H 2.484469771196667 0.4223156761817739 1.6211798580670296
H 2.644050596960533 1.695725068970532 0.39946354049911764
