16

C 0.8685205912310704 2.204459677769356 -1.6656020447677513
C 0.5329122246819128 1.370648401584835 -0.6653015528057833
C 0.7924407451528765 -0.05365995855710308 -0.7624849742430251
C 0.4978087581801584 -0.9224843816199226 0.16053763262801213
C -0.145225558469833 -0.6316497147098444 1.4600347734750387
C -1.4670945813391116 -1.3827005074478318 1.5982582285859512
H 0.6683538920499387 3.257538642150647 -1.5757922189823264
H 1.3400100258309904 1.8479116794096098 -2.5714061647683026
H 0.06807395118135973 1.836006970627525 0.19043745631220027
H 1.2638893720996107 -0.40213132629509724 -1.6709921527643963
H 0.75431442434371 -1.9809402927706934 -0.04968103369530995
H -0.3335101313362388 0.4496183605084018 1.5303678442131192
H 0.5382677582079299 -0.9643832049300936 2.2966085100227644
H -1.8913471189550646 -1.0639535686327641 2.5873562600329345
H -1.3239678973532474 -2.4627034056028174 1.6543969493562818
H -2.1634464557624176 -1.1015773718056112 0.8084562392281996
