21

C 2.30725073499715 0.03869449303094355 -0.48116712197323264
O 3.5573579408067695 0.12084427688168138 0.11714250618071408
O 4.528372841113755 -0.17537491929392732 -0.6977084807780036
C 1.2394740129581492 0.3923515766069274 0.5144081461146126
C -0.1324469335989287 0.307831189151793 -0.12213090125168395
C -1.1372329003538806 0.6782877895617344 0.9486239215170104
C -2.5563479571465093 0.6307183147001216 0.431585832057834
C -2.8315463498639883 -0.7790893956579642 -0.03766251471350845
H 2.1485839710264134 -1.0201214152837639 -0.7800728538106931
H 2.233243211168195 0.7441295886106617 -1.323003021010337
H 4.332166538826668 0.04992208834463441 -1.6478563203437084
H 1.2325296067013611 -0.3560632479311083 1.3508487186223062
H 1.3503708880346297 1.4311971892830717 0.8865848775660871
H -0.3269558470450776 -0.7242431981908729 -0.5185718034443241
H -0.24403098502851595 1.0570065214089486 -0.946319190478447
H -1.022173548404412 -0.06860145046157129 1.7593275850034
H -3.215658293110718 0.8485480594161968 1.3018791985228533
H -2.72835318792321 1.371988550570524 -0.35542888225607616
H -3.9323468557433077 -0.9358610590851516 -0.0377035248729014
H -2.4492753906803935 -0.877851097979269 -1.0553840860346513
H -2.3529814967341376 -1.4622845923255074 0.692607915382769
