21

C 1.0077408594064095 0.9641990988586117 -1.2657585755272358
C 1.5133277001119911 0.6357646203848866 0.1388380436045231
O 2.5427378808723855 -0.2944508423349275 0.11051628695541377
O 3.617777255508009 0.10345442911789603 0.7441450248547291
C 0.30125765918815844 -0.09124280632856308 0.7389969349993422
C -0.43209867367664245 -0.458090656103751 -0.5395807335042456
O -0.36729994849623776 0.720704363516063 -1.2396229050883885
C -1.814083799772896 -0.9637079420239187 -0.2968967893187751
C -2.7156231106512956 0.0053537406653111465 0.3960819739774612
H 1.4403014432366243 0.22079300114139688 -1.965353083961009
H 1.2563681599145613 2.0002571845597026 -1.5489201566647837
H 1.7552559070124178 1.5503850266695562 0.6810593324082385
H 4.439699487636929 -0.31395764744612814 0.33851039039423214
H 0.5976646098344756 -0.9581686223755731 1.3309050468521282
H -0.2825657890783947 0.6649726150218861 1.272064073690806
H 0.11881199104529068 -1.2263923706207625 -1.1132319602994944
H -1.7259479334060632 -1.8631421332128 0.36602022523324595
H -2.2213233252980977 -1.3293733124203422 -1.2491829535471624
H -3.7632945183055786 -0.2136218618949555 0.03633209665406372
H -2.5050708401318045 1.0567206610620188 0.21085245990576026
H -2.7636350149502076 -0.2104565462355885 1.5012413081018525
