21

C 2.249080104095189 -1.5938787669065868 0.10766716108676598
C 1.4944091000176294 -0.2792478824696133 -0.0739199379107687
O 1.9080354387205467 0.6058823559562284 0.8978689100827716
O 2.4237550790408924 1.713319651386271 0.3612785580452665
C 0.028182251538433418 -0.6029007249851687 0.04669971945116183
C -0.8422269905854757 0.623945710581233 -0.11514792948304638
C -2.271046807305261 0.16604247799989402 0.02582775958008969
C -3.253696335367516 1.2922862571162876 -0.11429729037414431
H 2.0496478684242216 -1.9377698476259924 1.1341328703565066
H 1.9089983347724633 -2.3484973053316827 -0.6387168251530144
H 3.328367245914494 -1.476967308786803 -0.019759833806591198
H 1.6904844864265243 0.1437389564584324 -1.076411086025902
H 2.8315222568128973 1.5080732803519907 -0.5262214207805711
H -0.2072041334266787 -1.107204429720122 0.9932819025892141
H -0.22715427997123536 -1.3119801106875988 -0.7857064077321316
H -0.6258915264914616 1.0436708510777912 -1.1083821077774492
H -0.5481151670439486 1.3415715564732646 0.6788030911481211
H -2.3962957791123856 -0.24485940452551944 1.0500119966231192
H -2.443252772583592 -0.6669294208584895 -0.6750868702972574
H -4.248064807303866 0.9712636278091186 -0.4432849239068134
H -2.8495335665718007 2.1604404766870444 -0.6628280743860475
