18

C 2.0489344832929235 -0.09865788093753751 -0.8965630032125643
O 3.4205265075459996 -0.31102698583336286 -0.7295233169866192
C 1.5443644453770715 0.9602110247349352 0.011273307959349716
C 0.6293986656729803 0.7694066803913486 0.9164196906651096
C -0.040004224953596595 -0.47686816402541327 1.191978303431777
C -1.5416043470978478 -0.4367744044000602 1.0031311115924801
C -1.9500198214228137 -0.08565078056102612 -0.38394335005822183
H 1.8913474335805915 0.25550936570297955 -1.9663866196214668
H 1.4748679488572274 -1.0192863987945482 -0.8194406701904411
H 1.9972561886484383 1.9939215777321464 -0.10733597893187775
H 0.3335626368146978 1.6427673673052643 1.5357531695297288
H 0.3360132441066407 -1.3317889604446276 0.6529662134742447
H 0.10910209112676457 -0.6814498933251502 2.3074608439948143
H -1.911254567138909 -1.4626344797935327 1.2282364676323703
H -2.039416337207227 0.25628652562927495 1.71422644202429
H -2.8264246287454506 -0.6966442902561232 -0.6841816746123003
H -2.3207952013051454 0.9793179651725574 -0.4111303399801393
H -1.1558545171524717 -0.25663826829774067 -1.1283493402234803
