21

C -2.02528900069163 -0.7838567412800078 -1.5092673261872291
C -1.8434952868870245 -0.07709469979562115 -0.20974211886222024
O -1.9284643479119932 1.320516522950097 -0.3419119897760309
O -2.8954187636706226 1.8130930174065776 0.39981735241514504
C -0.5241230426505022 -0.3762330246846737 0.45367308267265855
C 0.6551407336293895 0.02648624158636345 -0.4076489043544728
C 1.9064524324359846 -0.33400593962720665 0.3880896011880591
C 3.163948751372332 0.007028831422163824 -0.33733832084093274
H -2.3945372135629577 -1.8175764864989017 -1.3076689520258014
H -2.871848543880403 -0.26741427858977507 -2.049399381067263
H -2.6374558518484386 -0.38262259931465076 0.5024321976610857
H -3.3165484028476855 2.563111355767277 -0.11112943169214214
H -0.4250421791718682 0.1875515855864843 1.4029306703405837
H -0.41161120860589867 -1.4574528102273683 0.6740321253281131
H 0.5931397085965384 -0.5881685305556769 -1.3279294733971296
H 0.6354331176129873 1.0783428530938375 -0.7053637278267223
H 1.8610138045053237 -1.4179338804950115 0.6076539045755629
H 1.9103021922029375 0.18047940701698556 1.3705771605052732
H 3.421060837591296 -0.6991030937041945 -1.1507978008105704
H 4.000213073442873 -0.03888360963699712 0.3909601024317466
H 3.1271291903393044 1.063735879580323 -0.693336913800235
