21

C -2.4110814017020425 -0.71976445460471 -1.0403032784486392
C -1.734401453292218 0.03663449522292399 0.08246042016641447
O -1.637556513975363 1.3610255628630357 -0.2682356650491086
O -2.3740689250401603 2.1369046988539044 0.506630707632912
C -0.3984399765080654 -0.590303072506191 0.4096711014337504
C 0.8239280125193709 0.061126039145950065 0.2212039161988743
O 0.1781921695468606 0.16682696094076918 1.553228140402125
C 2.132796294862874 -0.6240279352527719 0.360709023339437
C 3.2459363406703603 0.3963495436914641 0.08549999425905364
H -3.4998593632207102 -0.4703572353093332 -1.0667987886016135
H -2.356424816209995 -1.817264309681301 -0.7832347520052647
H -1.9395467423626647 -0.5387102065539681 -2.013981438165058
H -2.4356979577144764 -0.03144793582561612 0.9607731399707385
H -3.142757491709862 1.6156620915082904 0.8745637102012316
H -0.4562464714466617 -1.6766927395001825 0.6278924734427247
H 0.8524320832515114 1.057811191197866 -0.2955410607287087
H 2.316783096314658 -0.9707890797790943 1.3848192099983765
H 2.28490337309517 -1.4427792909938704 -0.37770276575071077
H 3.452818721154397 0.5019399095392988 -0.9797995166284976
H 4.168392827386816 0.14005015873461607 0.6159173801694774
H 2.9298981943801827 1.4078056083088994 0.46850174775734854
