17

C -2.7079741442456533 0.32164741186808726 0.33598268563452294
C -1.5581219717460575 -0.15905294099505105 -0.5495879961339158
C -0.3407645698351669 -0.39927022506071735 0.269404733391657
C 0.7870129400068637 0.261943062790844 0.043349301928112816
C 1.9891396945637225 0.0018319397429142597 0.8776236913276324
C 3.10228239714639 -0.4844448870986585 -0.06156355466408313
H -3.357849747705545 1.043387350296402 -0.23559193032644293
H -2.3180054997579993 0.8117025858696437 1.2642597980363086
H -3.340227370151721 -0.5256507366079858 0.677874773384997
H -1.852433562064506 -1.048332206834585 -1.139089357397765
H -1.3075025903927953 0.6324160444438608 -1.2823545386269952
H -0.38493410296990055 -1.1307849778617267 1.0645399976286287
H 0.8294372683276348 0.9950724479704252 -0.7544036371462017
H 1.7700778246688886 -0.7841179072223983 1.6285054854116516
H 2.3562497192172875 0.9195656634330386 1.373659689610652
H 3.6860676586913987 0.4236528468415158 -0.37913689954946445
H 2.647546056247174 -0.8795654715756035 -0.9920597402228931
