21

C 1.2714024470886545 -1.52801369681333 0.6409299083664616
C 1.137205893811082 -0.13830533945565254 1.0897966065611717
C 0.6719984896372864 0.9073896066738795 0.18900662586779504
O 1.4764920532107029 1.0107977461762176 -0.9782403818797745
O 2.1032095892321614 2.154401187873119 -0.9327235259845104
C -0.7486103072160065 1.0293628353598787 -0.1994061612465061
C -1.4860596436464317 -0.030266254857949874 -0.8797139418722469
C -1.6776546093784566 -1.2611522219735434 -0.04173302433239056
H 2.3468984648096813 -1.8453974247531042 0.8180507328784824
H 0.695750051687657 -2.2908458035922874 1.2256701377688528
H 1.1462200363840662 -1.648280721441402 -0.4619093960691311
H 1.8398183479015169 0.1353069922163842 1.878798728138655
H 0.8895886695327075 1.899985600952229 0.7406888537722471
H 1.503735752415366 2.907588313459829 -0.6452801135346038
H -1.2847349940070303 1.3169001410948933 0.7843786357211199
H -0.8451685458485275 2.02726299090456 -0.7561142027670071
H -2.513944480477388 0.39366392857121724 -1.1335308269816755
H -1.0900732593866869 -0.285128934886121 -1.899362001210076
H -1.1999827190295158 -2.1637633080868106 -0.44667710121682536
H -2.7907161964898664 -1.5035071753026132 -0.01878478232033
H -1.4453750402308365 -1.0879984621193926 1.0261552303402766
