22

C -2.097806453654904 1.0614293156037784 0.3562838719404817
C -1.6912796397241419 -0.3120536590483794 -0.14310607494840463
O -2.5349599868610206 -0.665980633372305 -1.1921202080883995
O -3.175165429956127 -1.7903880291340777 -0.9499661410641087
C -0.2631763290706348 -0.3119057595153282 -0.6240811762624126
C 0.7252553132170235 0.06308322867588513 0.42657412041367465
C 2.1070469959671705 0.01951259339311878 -0.19949372608004615
C 3.1940542707214847 0.37861950264441724 0.7594132429610544
H -2.078060635763602 1.0367255187754687 1.4666682338824333
H -1.371989482217735 1.8368925117129322 0.01099808740819315
H -3.0978072236497325 1.3656084796997967 -0.019582572483171197
H -1.7663647126920368 -1.0792131478681684 0.6573311729362618
H -3.95997597036445 -1.7991601277624525 -1.5482032224579003
H -0.03109813918514631 -1.3642328866222573 -0.9372791091158396
H -0.11814637717887351 0.3215477449717629 -1.5230295770213567
H 0.5593481164814195 1.0439400012152904 0.8836049593751176
H 0.7232708190844237 -0.681870639820949 1.253492384358503
H 2.1232504279090136 0.6460379943622379 -1.1263822907505614
H 2.2560987579942506 -1.0535626926239516 -0.5174770920113345
H 3.5887247096583366 1.3952505554288213 0.48850896848979347
H 2.8445748183174464 0.45687007532831375 1.8106691822674768
H 4.0642061509678316 -0.3121324873452304 0.6671769662505386
