21

C -3.3062115435656674 0.8011430710384945 -0.055774982147501644
C -2.2208971897328667 0.03907491459461388 0.6819817458726749
O -2.876072623013397 1.156384121324209 1.2206758378806155
C -0.8191664030952585 0.24657775677833824 0.1473124324476936
C 0.181762139768814 -0.5456363296537491 0.9392806337290353
C 1.5861534136113855 -0.3941684348083835 0.4739840002847797
O 1.9420986446952457 0.9463117698820741 0.5698766361284259
O 2.902933636735861 1.1500657804623706 1.4264952179952664
C 1.8403879572031676 -0.9642797759476718 -0.8987782155672638
H -3.001888148891531 1.4732596251634793 -0.882730672898812
H -4.270981765172429 0.26645074767015914 -0.17255210920803568
H -2.478205972728675 -0.95088208813534 1.1201089765113512
H -0.8326952279811753 0.011900829097178607 -0.9183841834597872
H -0.5167959963121446 1.322195745562462 0.2345167407076739
H -0.12277350546390113 -1.6262569705377878 0.9547269048077162
H 0.1433574490724615 -0.22079267229974076 2.000469876537051
H 2.24153890527262 -0.946045947375302 1.1787129965574021
H 3.6653316744248023 1.5302433737454562 0.9205653706930502
H 2.953512799640533 -0.8705833217726735 -1.0681673690961757
H 1.3722449341450786 -0.3927737912103635 -1.7096741101212798
H 1.6163668213869367 -2.032188403577845 -0.8841267544759994
