20

C -2.1888773282024068 -0.5389309987195772 -0.4971647948985162
C -1.5636678065342167 0.0698098380570528 0.7164426599695464
C -0.6138628617482125 1.190167923739784 0.3961693616441353
O -0.0757922431097418 1.7018139373301453 1.5757085492099732
C 0.4922221418369617 0.7567969188773255 -0.5203483849304931
C 1.3310447999317319 -0.3563598468899636 0.06789077684870895
C 2.424126112863252 -0.7437647869558373 -0.9044356670143425
H -3.1126016727594243 -1.0908580338246503 -0.22259681487128138
H -1.4911388042849962 -1.2407996867408835 -1.0286737788470262
H -2.5118952128654346 0.22647526815740746 -1.2468192233575108
H -1.0352393939782234 -0.7258327601345407 1.2716810231698799
H -2.398063932458441 0.5152362099060773 1.3247598901863786
H -1.1973426659339879 1.968011312904896 -0.13988268086878727
H 0.07906544673382208 0.3909549403546125 -1.4819097333999114
H 1.1630841373909504 1.605251238756014 -0.7450044200314523
H 1.8459185282033328 0.0484813283204838 0.9696580026410353
H 0.7401392650815424 -1.2121318893502404 0.39272533902840945
H 3.115734820097773 -1.4638543871460825 -0.42945259592776674
H 2.010117985256013 -1.259512051984943 -1.8027054820789432
H 2.9870286844794207 0.1590455253427081 -1.2076284695381694
