19

C -0.843690366861047 1.402196489279302 0.4663497234911846
C -1.8320410566849281 0.3304780953496551 0.10178210312096862
C -1.2396847155159048 -1.0353381639018815 0.002998847733159103
C 0.1693506865250681 -1.040117047937598 -0.5514192545444969
C 0.9217422112356269 0.22503826053769277 -0.22570677686962987
O 0.30892890923939875 0.7395128971940662 0.9418194546339616
C 2.360968305283271 -0.004173387307960969 0.11018098278459389
H -1.1727978483617247 2.0556448328325665 1.2864567258979025
H -0.4958338918866566 1.965783719544156 -0.4346058554905482
H -2.599331764069578 0.30343664033005213 0.92419076859227
H -2.3356697872691012 0.6273560224447393 -0.846685436528179
H -1.929340657588879 -1.6572216839114178 -0.6150852663347697
H -1.1930835426213875 -1.5346939385376588 1.0068361518401443
H 0.09221302738147992 -1.2261721079262176 -1.6451226087651742
H 0.7040414078489855 -1.941270045992106 -0.14327431686963646
H 0.769487996881135 0.9602865346318178 -1.0424675221442783
H 3.0171615669401404 0.8539064856508166 -0.19444634754920323
H 2.512902073885965 -0.12278045290878406 1.2140968764178934
H 2.7846774456381618 -0.9018731493712574 -0.355898249416168
