20

C -2.9418177233634504 -0.24719950107210326 0.6862287663048885
O -3.8321528649620293 0.7796643423169516 1.0808049228004997
C -1.5897249635076744 0.4178919504205299 0.5389182782339322
C -0.5156310779087021 -0.523682653945603 0.1222241114784249
C 0.7775478496843933 0.2559429127796699 0.011010926036148644
C 1.9378017984886529 -0.6069869360624994 -0.40764877815168316
C 3.1597690038935995 0.2826853135887764 -0.48143921606743184
H -2.9457195870038198 -0.9666491751511469 1.5300870054490954
H -3.320086973998793 -0.6512482552845645 -0.2559524286190863
H -3.903972030007827 1.3701984152740891 0.28896442158375146
H -1.649984191137998 1.253271088331699 -0.18639867826333345
H -0.7049404533304777 -1.0178111052047318 -0.8535862049127887
H -0.4063059311293826 -1.3063908754465987 0.9008712379646862
H 0.6222893317028769 1.0065302469636912 -0.7978594973320952
H 0.9994789431626427 0.7738485064793733 0.9728381014229349
H 2.106031912328439 -1.3854820502610274 0.33486061141970125
H 1.7465498947312441 -0.9740835973937666 -1.4295015733144814
H 3.54032548336987 0.5318967006623752 0.5284620245253735
H 3.975282875485778 -0.21796204148954243 -1.0495445481915973
H 2.9452587035026316 1.2255667144943985 -1.0462553995855113
