23

C -2.5438333941273217 0.2689378866444038 -0.22110320546469717
O -3.779912648751848 0.23688050647459807 0.40370834661451116
O -4.683903318235672 0.48531192675622337 -0.5278063024886976
C -1.4060515687542359 -0.002842530510479519 0.7395201075027141
C -0.14271609320249593 0.06224147105276309 -0.06347138247066526
O -0.15074869213801553 -0.8737810379873847 -1.0652387971370623
O -0.04307078871194268 -0.2902545687338521 -2.2313181012040775
C 1.1021852364373361 -0.17698712013894263 0.7780387783629937
C 2.2535883803450925 -0.0680169475732886 -0.2207421725739181
C 3.58607354695057 -0.2714967426519266 0.39673599641996543
H -2.4667768397014216 -0.5327387742526148 -1.0124469929634154
H -2.3255695984604747 1.2172404843706996 -0.7325978098741881
H -4.737923896364073 -0.2830731878925068 -1.1469314444758185
H -1.3853071609760297 0.7014832898043444 1.5879863070599833
H -1.531203493992423 -1.0329157100176591 1.112413301209163
H -0.0473829765295032 1.0753587508762414 -0.49176916297243434
H 1.1990592963380353 0.5270345726516907 1.6107476964528231
H 1.0257191644722112 -1.196369761960491 1.2037471085159193
H 2.0699092892304574 -0.8568203844207873 -0.9791380183791801
H 2.131100866328161 0.9421835071530068 -0.6941495375733401
H 4.092287259931753 -1.1727063133808855 -0.033809242265056626
H 4.247001083678656 0.5876363760084531 0.08421987928855307
H 3.5374763462332113 -0.3673391115873731 1.503404648415944
