18

C 3.1660359641123614 -0.056418666109686974 0.19872852499022464
C 2.097684111843335 -0.5697020076568168 -0.38587112069900936
C 0.8619670413665751 0.204729187420561 -0.5286719156447919
C -0.3271871120374209 -0.4276985586375489 0.15493183780790232
O -0.09733208232598584 -0.5650592446043944 1.5215012769162841
C -1.4909270043630636 0.5447604091372277 0.004526258659762133
C -2.7425259222078595 0.005715081378650779 0.6587935705470916
H 4.095914230103035 -0.6054613390189162 0.3193381818654952
H 3.184065147212299 0.9640588770873938 0.6030434426900947
H 2.150827761691623 -1.577757145206717 -0.7597500561551549
H 0.990382738484012 1.210822969069103 -0.09202410564383509
H 0.6336867315069485 0.2919695860874139 -1.6123608842378883
H -0.6033219912542852 -1.4037043512995335 -0.29049484516809165
H -1.1797827604745652 1.5196128417408705 0.43560386609533086
H -1.6313936171161678 0.6943056229940456 -1.077317361160269
H -3.556714010760884 0.722951834836744 0.4271275673816644
H -2.958430880227285 -0.976679062693058 0.2321499462077445
H -2.5929483455527276 0.023553965474642304 1.7454554517390413
