8

C 2.29827445818826 0.5823404292160044 -1.777590260379264
C 1.2720700666026157 0.31773366174920287 -0.8102456294835177
C 0.46616809916154917 0.10754467185284147 -0.04169255115284043
C -0.450608394787781 -0.11698755743249 0.8298139833883331
C -1.6619409368537787 -0.40787159960841707 1.94192026559375
C -2.00471099294665 -0.49520491604985284 2.2598590754852736
H 2.9433709002703097 0.7458940076475474 -2.366747382205042
H -2.8626231995988594 -0.7334486973698675 3.072386090403232
