13

C 0.5272376008397276 1.0689162577670897 0.27666612963898796
C 1.0612974552164163 -0.2043626302713255 0.2434607556973583
O 2.4104717071923645 -0.4384710754406662 0.4421783733485549
O 3.2764097381163584 -0.1694684007940323 -0.5483340094103221
C 0.20232845002101713 -1.2709076861963422 0.0017659826237987695
C -1.1361491235197543 -1.044674390638596 -0.195943556914167
C -1.6356912467152098 0.22949560984368322 -0.15699881512992497
C -0.8357666589929793 1.3250911698938583 0.07778114227754884
H 1.1883501698184706 1.9028732264317791 0.4639133740469063
H 0.6173348632221242 -2.2636141007945954 -0.024359632816067917
H -1.7906414628445242 -1.8658911115565717 -0.38092084219958805
H -2.6837917786481142 0.38631065393895897 -0.31374467788010885
H -1.2013897137059255 2.34470247781675 0.11453577671702632
