15

C -2.1717609116444208 0.9445090362705263 0.25396780796159446
C -2.01479478744399 -0.33284769068303377 -0.0742940131884574
C -0.6743770310634215 -0.92808437907777 -0.335121330052793
C 0.35326775220245965 0.14295146489336505 -0.15870940021625862
C 1.7362968564301047 -0.3269663902812363 -0.39225303637617676
C 2.714596849250694 0.5664984759724724 -0.29280452983356836
H -1.337248108926633 1.6260676684833302 0.35096767795681116
H -3.161049833454359 1.3425407732704198 0.4362706647504164
H -2.871222929838054 -0.990281859311971 -0.16350211326622618
H -0.5397495551605072 -1.7671020331155223 0.36676344187007254
H -0.6470385372419455 -1.3465414153824002 -1.3600878722872627
H 0.30793818255334926 0.503760173637081 0.8980371002543038
H 1.9978473565866208 -1.3418740207176731 -0.6363496451915654
H 3.7638038518551213 0.2968357322571985 -0.45123244514704186
H 2.54349084589504 1.6105344637852521 -0.051063798882559304
