21

C 2.2552076131690453 0.6118744809204235 0.911878488018461
O 2.68863368362357 1.342324927478825 1.7814275933419923
C 1.5863912930972464 1.122545803249453 -0.3117885492109205
C 1.1632348827585894 -0.006405206672428437 -1.1914911138860307
C 0.20042692356884545 -0.9474595397576036 -0.5328068071624087
C -1.0764078114190812 -0.25604723749020386 -0.10378791477328986
O -1.7231432649006648 0.3025126460681944 -1.2107670768392012
O -1.7837910058136963 1.6005891014245455 -1.034928532316841
C -2.0145115233852255 -1.2820933152333127 0.48015478490714586
H 2.3555207254806345 -0.45818411266722586 1.0237574979405046
H 2.3590941637619123 1.7133795960726284 -0.8872576996973048
H 0.7832825490674158 1.8302272915571283 -0.07337349656508584
H 2.040846362018332 -0.6006931093342249 -1.5151621716174462
H 0.7168212767703465 0.4020460708250398 -2.1278104414449026
H -0.09159124398852088 -1.710515340065593 -1.3042166591581827
H 0.6639739537439616 -1.4376365366387602 0.3210931735861036
H -0.7825040587350617 0.5250153818243033 0.6318393872955568
H -2.495219340847117 1.8153817313043266 -0.3937830770473738
H -3.08646781329024 -1.044395690258567 0.24184413693783258
H -1.9471834022848873 -1.2241123259374385 1.5877350545802966
H -1.8126139623952948 -2.298354616669512 0.08547127049986605
