21

C 2.8515922365118085 -0.7142773035374393 -0.5034037673205655
C 1.7587553767734896 0.18974306451040998 0.01419751129000428
C 0.5002318331697837 -0.030695186095567057 -0.7441941540993382
O 0.4954135963225292 -0.860002551601767 -1.6363087757576655
C -0.7550730054796423 0.6972501374004353 -0.4833508776395961
O -0.6759332993877583 1.6133309759708192 0.5327970116566711
O -0.9029864615867165 2.8386282031799457 0.14352477906883615
C -1.9140180798721573 -0.25879960769242205 -0.2548340613756772
C -1.6973414703023424 -1.1673412669038483 0.9087899532427532
H 3.4315577749334083 -0.16556467916270706 -1.2937643548783047
H 3.4944693410482097 -1.1084008175299238 0.28561909633390686
H 2.4252493147178296 -1.6016475558177885 -1.038804658346612
H 2.0854101702544914 1.2585633965610823 -0.10463346421105782
H 1.6003190353304144 0.05731038028070361 1.1040742872782685
H -1.004604376346878 1.2611894858070614 -1.4246840491635477
H -1.7135014911829858 2.8753900759895785 -0.3955070662425335
H -2.8505472042813347 0.3012969689074726 -0.1102316972312921
H -2.0671412632797215 -0.8945330159873729 -1.158773031545683
H -1.2680922637075096 -2.1470408831925183 0.5697129613918716
H -2.7069462248851823 -1.4349811353909143 1.3222704032038974
H -1.0868135387497155 -0.7094186856952052 1.7031870747935511
