21

C 3.3908943128314983 0.19908948099063092 0.039775457897236174
C 1.9915064495332315 0.6111523177213202 -0.2510025180150945
O 1.7834862700567868 1.616437056957482 -0.9415846938131623
C 0.7979052240147304 -0.11982668473213877 0.24011823065380555
C -0.1191848834237882 -0.24547708263584445 -0.9840836313508352
C -1.3857499285113402 -0.9742925242909348 -0.6200621340324048
C -2.180830035850125 -0.278088191058504 0.4494918721336981
O -2.5734665780528574 0.9964151734739712 0.08144132274357828
O -3.1462129077494536 1.680196713634782 1.0260176028761419
H 4.092525650297627 0.8978388328650674 -0.45922875682098385
H 3.5568784432764105 0.23700289775641104 1.1298928819921994
H 3.618120970158741 -0.8006841872465643 -0.38909505617254053
H 0.2870781920670784 0.5967757601754847 0.9361714478429082
H 1.0196122570506752 -1.0929748985501242 0.6617558716501046
H 0.4421863686847084 -0.8566442926443623 -1.7300142198127635
H -0.22894430796155887 0.7539455543734591 -1.3828608059578944
H -1.0552173637445392 -1.9655577050553206 -0.18363180248768812
H -2.0072347373916553 -1.1986383509256648 -1.4837537102349172
H -1.6779910292183673 -0.3029114811177285 1.4419420789434794
H -3.1211840299372455 -0.8820138955303984 0.5876978047905607
H -3.484178336130561 1.1282555058389767 1.7846784513532548
