19

C 3.2481385517239523 -0.30210745298920755 0.03673287098503297
O 3.9850528843786175 -0.414775471098879 1.0000559555013837
C 1.9593610443044347 0.4116953780266007 0.21832552742742134
O 1.8710781016144447 0.8233078910277757 1.5409664249411177
C 0.8056353217942109 -0.49546791934365847 -0.15576576347496035
C -0.4727848876201857 0.3136766991424534 0.05956906450952225
C -1.6928742578098592 -0.5132615868413979 -0.29014625280877737
C -2.904312709617852 0.3690788644768607 -0.045785808456445365
H 3.550314609893774 -0.7237291127119538 -0.9241166245700578
H 1.9070552784304726 1.303483009931601 -0.45582380058591787
H 0.7434034991782129 -1.3865384918774377 0.4807073347777907
H 0.8292008272667072 -0.7786453992801771 -1.2219037295117894
H -0.5246493036650792 0.6826292970980516 1.1028846419239235
H -0.3805387266855333 1.2032110512217857 -0.5928820133161418
H -1.7104572832893936 -1.4105712282125629 0.34920493724683405
H -1.6601042799697738 -0.8578517619247188 -1.3364108069163498
H -3.2130497277001684 0.22031317351841762 0.9997059187439058
H -2.6406474074227404 1.4477142207148588 -0.1953221967460869
H -3.6998215348042116 0.10783883912156565 -0.7729456014599293
