19

C 2.607620608623291 0.5613716184375549 0.16124202490660677
C 1.6461202994130175 -0.5011259366609752 -0.23219868007438338
O 1.702546985209995 -0.8861272028131043 -1.385589282894314
C 0.7076988040502311 -1.0119937666404222 0.767493745732714
O 0.9003055243473286 -0.3708523558049466 1.9722747464043877
C -0.7421528036646842 -0.8614006224043645 0.3689739995317862
C -1.1180069293344579 0.5862939111578835 0.14532569943300924
C -2.5694204653661106 0.7002412159528815 -0.25055605248746704
H 2.1611061546547554 1.2892634027253982 0.8838422074390467
H 3.434067155744702 0.030121405719601 0.7177977961069579
H 3.0371158091495385 1.0876006443480672 -0.733425558067622
H 0.8816422542590712 -2.113427635071109 0.862514768129141
H -1.0094436351161578 -1.4972537090080091 -0.49456634669820304
H -1.34539455362856 -1.2155830267842223 1.233731822271117
H -0.4920683005865214 0.9767625708385517 -0.6871436895052546
H -0.9342806266996635 1.1535232202565864 1.0662953820749306
H -2.7042633857513922 0.9500434724171739 -1.3263081669335042
H -3.1161222850548502 1.422461141492927 0.41033209395172654
H -3.047070610249535 -0.2999183481594767 -0.11133868502067809
