19

C 2.0633516770243068 0.5140818576740946 0.8758730641510385
C 1.9025232531223921 0.5744560667811394 -0.6105604096741956
C 0.836128237341818 -0.37071525805059835 -1.1283614458144386
O 1.1183845576553173 -1.6752558607677557 -0.8231287015113823
C -0.5060979627249386 0.06773449114807094 -0.6817685576074274
O -0.847244331633751 1.210933879439466 -0.9081053972971952
C -1.4640030862645934 -0.8008655851838922 0.02611187332251922
C -2.754023661545673 -0.08249674390966377 0.35738491181816145
H 1.4771699262122167 -0.3007050031216443 1.349183400917838
H 3.132326493390134 0.31996575700800417 1.144084339770103
H 1.825215001766162 1.5103290246735543 1.309223484718315
H 1.5746327299129734 1.607471838700531 -0.9292513712994211
H 2.8763930670029105 0.38721324689760234 -1.1085572370735377
H 0.8558088424059783 -0.2616700046307032 -2.2497307640029263
H -1.7351673570065893 -1.6655930600827484 -0.6247613008928525
H -1.040622974502887 -1.2054818494537494 0.9853007678848911
H -3.5336931866224552 -0.8638523383520083 0.4736267861570891
H -2.698829891617013 0.48015046069176537 1.3083333473195913
H -3.0822513339162723 0.5542990805385254 -0.4946693583834809
