19

C 3.0738376766178366 -0.0695323164595872 -0.17178500603414118
O 3.760795293692314 0.3517531694003216 -1.3055121280040154
C 1.6263448346007214 -0.13968812152685547 -0.47518281733488993
O 1.2368964641317202 0.14863244708341672 -1.570245220892664
C 0.6680386025999052 -0.5625493953215691 0.5656992657049595
C -0.7604493317234949 -0.5790080900216396 0.1600897023957807
C -1.337345280809907 0.7232495489444253 -0.27462668295344833
C -2.806622456290246 0.5031287577650867 -0.6475949233902252
H 3.438793511903863 -1.1005609269248924 0.0468949718895234
H 3.3026334704510667 0.5949772457835875 0.6870794688871787
H 0.7504980347210474 0.055618404668196876 1.4920111308173374
H 0.9455557349674785 -1.5982982349691341 0.8616459377589215
H -1.335827533914512 -0.9595387111478759 1.0517768059954093
H -0.9733726833268421 -1.351343017970102 -0.6343989850749348
H -0.8126881003990309 1.1328766100941132 -1.1534992245177706
H -1.3438944610097523 1.4995584861624214 0.5021838938238996
H -3.1014410358035387 1.2081657546556244 -1.4573484620853028
H -3.4457756415928555 0.6833952789279826 0.24530505612990042
H -2.885977098815711 -0.540836889143471 -0.9926878005634353
