19

C 2.297935007654341 0.32673390817901443 0.7220373242020227
C 1.821633984050509 -0.8049016549899884 -0.1770133273632194
C 0.3270373464687912 -0.9377650264427239 -0.1506740376079085
C -0.2853711955576703 0.3400622151275312 -0.6265034650654743
O 0.44613148362603944 1.2607667573248293 -0.9521712420877563
C -1.7350482455210534 0.5477334947822774 -0.7236134366844492
O -1.9994845212775385 1.8274480280755292 -1.195056023221891
C -2.4588529259531944 0.28997650813408044 0.5774828137531601
H 1.549966935585749 0.5349257983949707 1.523962260167222
H 3.214927512228308 -0.02584084750870874 1.2297909363164907
H 2.497696848397191 1.2399437817799306 0.1669224535237881
H 2.3491567092507775 -1.7401307119967335 0.05030375813079992
H 2.089116385711659 -0.48346891514904816 -1.226119619061819
H 0.05192255767418454 -1.7699568906009433 -0.8272178606084615
H -0.03866611398341111 -1.2089611703716039 0.8726891857464961
H -2.124323110190864 -0.15309782357585835 -1.5174660134547486
H -1.794907936241114 0.39303935916154686 1.4596010804414508
H -3.2612902522998732 1.0537314476887365 0.6487881373096218
H -2.9475804696227343 -0.6902382580129295 0.5114284090781547
