21

C 2.4607548706559585 0.40481741029497653 0.3437732888629563
O 3.595121568452853 0.5390213428047832 -0.435059955915686
O 4.625737361621943 0.5951550007431344 0.3965343203323671
C 1.2202030998386377 0.3291035123607891 -0.46984991559656336
O 1.3208286802782605 0.3897216186652143 -1.6806322492996213
C -0.11029380954981756 0.18417009304799162 0.1513782659766614
C -1.1876918052308671 0.1331627029668282 -0.8999623574936769
C -2.5478373067673497 -0.013934304445007442 -0.2898109213168367
C -2.6086974010152413 -1.2824160745835218 0.5080286164830021
H 2.4193205502739237 1.3050222225906518 1.0049989703887199
H 2.5965198274627888 -0.45928537925397056 1.0044852876805543
H 4.923617160130745 -0.34465054503297465 0.5181652992331157
H -0.33659855155103885 0.9834589109174545 0.8857132912663687
H -0.15995954795867875 -0.772576299329232 0.7227651171760371
H -1.010147997586508 -0.781308963111128 -1.5381788887543424
H -1.1075990102086684 0.9961756895822268 -1.5782940071623943
H -3.2879523236921786 -0.0784744302937757 -1.1187922723864105
H -2.8155544656793254 0.8790288261243492 0.29645391317915215
H -2.6867196143811154 -1.0985632399867111 1.6118018177276603
H -3.5374128746186226 -1.874622603862888 0.26370587792389266
H -1.765638410475669 -1.971097582193673 0.302776501695033
