21

C -2.0180233835637966 -1.2135984115947793 0.9216630432646334
C -1.593251219421064 0.17735062826663384 0.5547984058755103
O -2.708146951122713 0.9202437516831671 0.19751204225723523
O -2.960919179689765 1.9107169252905238 1.0148434770398111
C -0.5669591397699016 0.19071082009700022 -0.523706078582121
O -0.8116858976417148 0.8356718374837507 -1.528595565245855
C 0.7086086022553756 -0.5269658120668206 -0.4363586700560992
C 1.8016077131195576 0.4373468308579751 -0.013780198529939358
C 3.143309388354888 -0.25384845234336084 0.09397835542207111
H -3.104335281999275 -1.2392807207237568 1.2049713679939555
H -1.4598492878361977 -1.5686055405311063 1.8436092388467118
H -1.8327445262779345 -1.8795969560449495 0.06377581425495311
H -1.2046635678614237 0.6512764864485465 1.488493879488538
H -3.0745865613447343 2.745127417787049 0.4845141856675438
H 0.7220059527544154 -1.3716202885452686 0.27166988201073206
H 1.0177378456403317 -0.8873417419654355 -1.4642915079334
H 1.8929194063480665 1.285692705060455 -0.7074178703992835
H 1.5935147126748537 0.8704632618450956 0.9997236981208826
H 3.0749873030006345 -1.2685618996791934 0.5246061035686227
H 3.7858604003546956 0.42181985288744533 0.7268266681655476
H 3.594613672025734 -0.2370006942129603 -0.9210958327950797
