9

C -0.24209321725327285 0.8223599427366294 0.12217257984491568
C -0.5435781257597363 -0.6564400557732404 -0.12695436460207385
C 0.8555610320114372 -0.17678592139328717 -0.007485711815266288
H -0.3830678511529998 1.2331723397068353 1.1302942681302979
H -0.5204871574749282 1.4607157604823766 -0.710680241664159
H -1.0836840627492907 -1.1158527076861595 0.7122089413653984
H -0.9317045561730263 -0.9578413240630028 -1.1158883994249278
H 1.4625953452672722 -0.09330457782813865 -0.9120047407225879
H 1.3864585932845417 -0.5160234561820058 0.9083376688884102
