7

C -0.6120215326456675 -0.6418466462643108 -0.001177729018290373
C -0.5127722731509375 0.7159297677107805 -0.011371300050189909
C 0.7588621284196949 -0.052320015095474785 -0.0023896094266986963
H -1.2391093610729067 -1.5110339650195295 0.003982371492370988
H -1.0128023941635498 1.6853687962108643 -0.020026038908337568
H 1.2763797014927316 -0.06978650042363015 0.9640286400902599
H 1.3414637311206377 -0.1263114371186994 -0.9330463341791161
