18

C -1.561635430323721 0.9469547558760122 0.3173872966497166
C -0.4595518173730107 0.19874973000958068 -0.4329741823337337
C -0.9900638926195787 -1.2195327053018592 -0.6092764708534071
C 0.7931805592033373 0.20995512118446552 0.4178406788584492
C 1.8972155619669846 -0.5265625074237396 -0.3082004296462326
O 1.1395243961392414 1.5395189148105808 0.631288794004799
O 1.1409761448257019 1.869489413974448 1.901281958236776
H -1.5046717195809307 0.6852402595388881 1.378080012393877
H -1.3925706426468292 2.0269188841169967 0.17423410715512325
H -2.521832584514621 0.6378498119991278 -0.12751573163405663
H -0.24184816937572226 0.6893423076432724 -1.3936142427606597
H -0.29432098135026435 -1.8542366324009827 -1.1814385004715695
H -1.177407978752214 -1.60043206867068 0.42112671862205087
H -1.968569016599129 -1.0932658130015593 -1.158191047288053
H 0.5837501957440236 -0.3121259026489485 1.3928731137136703
H 1.5476895419481231 -0.9808478569524266 -1.2567319839588016
H 2.744328593447179 0.17388249026619435 -0.485259880284368
H 2.265807239861445 -1.3908982030193824 0.3190897895964195
