20

C -1.0859907757409406 -1.2039401279545505 -0.9102531665666431
C -0.8793694965684056 0.17435291528918792 -0.35341274816133533
C -1.5700277104709284 0.2807083408754747 0.9804649738376855
C 0.5627550162300836 0.5843411305649335 -0.30145690851352164
C 1.4124961793201687 -0.31178241925932687 0.5460048336343635
O 1.4555722998819285 -1.6170865985996763 0.10694551238155772
O 2.2296988529134665 -2.2933187961218757 0.9326430371595013
O 0.6104176010593478 1.8674192306942985 0.2561882807230889
O 1.1163102111557635 2.6592300671216806 -0.6464757580317525
H -2.186846909835385 -1.3035772538264605 -1.1172626518614182
H -0.8253611203884399 -2.0167430359348515 -0.23241693752672554
H -0.5695994807105148 -1.3057125404660843 -1.9021868269568525
H -1.3955214871812918 0.8840771814243189 -1.0405262991058866
H -1.137234495032646 1.0750277992953063 1.5980405449049044
H -2.654785494701989 0.53257319483021 0.8007007277710804
H -1.5881601447501281 -0.7143742679473404 1.4678737399689692
H 0.954214213228302 0.5633902194953594 -1.3370190573298169
H 1.105449060310986 -0.25709937649197073 1.6207391976808996
H 2.449126889594277 0.08463295723420806 0.5118562266264478
H 1.9968567916862787 2.3178813797772566 -0.9804467206346512
