19

C -1.810644758312966 0.49801474070457896 0.06882123007261136
C -0.6438967612905483 -0.3265705830702664 -0.3953294950160026
C -0.7527712483350666 -1.6714676256752736 0.31828659669046144
C 0.6827142256476155 0.2740238421052943 0.035920791631958916
C 0.8601565775013184 1.6696052141583309 -0.5320003503035832
O 1.7105933032083687 -0.5704288592700835 -0.35373821068984235
O 2.4435468608398945 -0.9980296217245248 0.6349287666518467
H -1.7234178735577164 1.5675462510802736 -0.1506454946215942
H -2.7308984838099954 0.08466720878622873 -0.3920657863401411
H -1.9426322239483584 0.4158799180348155 1.178179060061054
H -0.6976898498345078 -0.4709398616452185 -1.474036859022644
H 0.2442862957253748 -2.1591220118567422 0.272969327666305
H -0.9772381084538964 -1.4154442395710816 1.3822705769954353
H -1.557259549820762 -2.2851066736027965 -0.11026060841971526
H 0.743396331851503 0.37955490225069305 1.1387269942966478
H 0.7295463660462429 1.703452093017197 -1.6291306245552937
H 0.16165443616800151 2.3284811424727945 0.01801102303225914
H 1.874642135934818 2.0148320040004037 -0.3108556036709974
H 3.3859123244401106 -1.038947840194546 0.2999486655423585
