15

C 2.201855388017127 -0.3119304357831056 -0.13623874604498287
C 1.0370096075750863 -0.24732410771424998 0.48124656995065573
C -0.20833480432324863 0.08723265813730474 -0.2994321612391381
C -0.8491931623128801 1.3598340000684013 0.21625921821436161
C -1.1816596747477304 -1.0561677084729137 -0.17637137803509398
H 3.0772098961548306 -0.5522945584649904 0.44068566188056446
H 2.3093059775661025 -0.13406584539712205 -1.1907352081758058
H 0.9456063393791052 -0.42952373413705913 1.5459673266630076
H 0.06639281593562653 0.24916915875285447 -1.3669727498873467
H -1.888050938509767 1.3703929910554724 -0.21913806777942016
H -0.9292900753341253 1.3988988289051572 1.3057950799978415
H -0.3553228542707505 2.2670791330993803 -0.19982067718391955
H -1.6645074890393634 -1.1950289962016298 -1.1586921405436232
H -1.9149509748483895 -0.8184872789692432 0.6280085312540099
H -0.6460700512416143 -1.9877841048782638 0.1294387409288848
