17

C -1.2503852752269122 1.355653725110681 0.39607760641859824
C -0.32413966762624785 0.15915186326046096 0.6463650091214302
C -1.1134726152828764 -1.0803407061621069 0.20474510972909835
C 0.8734925419686705 0.36251642795309313 -0.2183093335434739
C 1.900736739142452 -0.7258592209429097 -0.10265996728804784
O 0.4575663139732834 0.4181556956955064 -1.5443366493993784
H -0.6592329721661021 2.2238185994751496 0.0014821710557119023
H -1.6985749508377663 1.7145511796317061 1.355173623484334
H -2.0638477698653523 1.0888621126749496 -0.31099504779410675
H -0.12690329349237334 0.1352290851058854 1.7212300276949815
H -1.8642309858236945 -1.2688034645183068 1.011334547756534
H -1.6982272072635012 -0.859900861724581 -0.7074844026858308
H -0.4449058062765043 -1.9452574840913441 0.032350297742709984
H 1.3510486001020618 1.315582519633882 0.07423892446514868
H 2.3089797634415365 -0.8015188024172137 0.9291067375911353
H 2.7754718832386827 -0.3992729340016773 -0.7354008970515112
H 1.5766247019946593 -1.6925677346831813 -0.5178164912455884
