20

C 1.4546141227651168 1.1993553416060554 0.9614369612734737
C 0.8640709455974883 0.2875173000936364 -0.08366282563649985
C -0.6366556027795837 0.2597418983248815 -0.06783335685293573
C -1.2108601070916842 -0.5327613152225656 1.071856233199224
C -1.0525688317680864 -0.4723914629172271 -1.3533885762849858
O -1.1972427774590477 1.5286704578684092 -0.12616904377374935
O -2.5068005723609277 1.3999048918850652 -0.10710775262473311
O 1.3342337186431958 -1.001444284426422 -0.023397873410638714
O 1.9710814445085638 -1.3949213739200208 -1.0891346068628813
H 2.5286433911829573 1.3412362392558075 0.6957655534465741
H 0.9856288999446632 2.2063310231089384 0.7990308770316218
H 1.3061110043667916 0.8335362442080753 1.9840068367266852
H 1.1541880958628534 0.716863251774369 -1.085231913811274
H -2.2265301979841845 -0.9117300500323526 0.7569389297845626
H -1.3694137158122155 0.04177420281369274 1.9845255223185152
H -0.6184964650683519 -1.421021271902457 1.308442971527715
H -2.1142505173127266 -0.7746942476312053 -1.2145513362753388
H -0.887040399396693 0.1536480461388747 -2.2336994104599595
H -0.4197118150167722 -1.3820038032289625 -1.4001824081688579
H 2.6409993791786426 -2.077611087796569 -0.7776447811465398
