14

C -0.9844617375327545 1.2756998858659845 -0.20557038411588266
C -0.2732953750631065 -0.04488814220400484 0.026020171927916752
C 1.2041445302007558 0.09582941484339567 0.15467016497365949
O 1.8600995513379155 -1.1077170508328298 0.3803343594941521
C -1.026898180751676 -1.2208616301562023 0.18749464581309414
O -0.5816827198985075 -0.9438179536850485 -1.118071550675922
H -1.0253158261301019 1.82367772110977 0.7804578721872649
H -1.9684516427908458 1.163494205296558 -0.6510417150155776
H -0.35147769401708234 1.854744068859991 -0.9270482146507774
H 1.5771033847314366 0.46156706671326464 -0.8473743981037112
H 1.4557123445345226 0.8597380851449009 0.9097052155931183
H 2.839633404472342 -0.8718681788925868 0.43439632745178863
H -0.6029107462997974 -2.173427885849026 0.5788834540507185
H -2.122199292793098 -1.1721696062141567 0.2971440510701499
