14

C 1.5457574536769898 0.11230434038349739 0.01762032936440913
C 0.09333220999076684 0.0046841499797007965 0.3476752055971784
C -0.6534162909615567 -0.8868844737902044 -0.6194381546268756
O -1.0802173416193854 0.20489901654219375 -1.379394612972976
C -0.829407046173163 1.0017887319257794 -0.24430094125091167
O -0.10359263858099693 -0.278628945623053 1.690477109266523
H 1.7661264029832027 0.7489991008902942 -0.8573225674050368
H 1.8900251445726992 -0.9209686641416678 -0.27729251993657034
H 2.1766358292430183 0.4147787958414118 0.8882653912922702
H -1.5168546195823676 -1.3880427490726501 -0.13230085340790654
H 0.0034640107398190272 -1.5707282571180454 -1.2017014898589296
H -0.45723899760482767 2.003548632532839 -0.4640458173250118
H -1.790127813571485 1.0460374776846704 0.3418634797927774
H -1.0444863031127045 -0.4917871560347607 1.8898954414710443
