11

C 1.3239295818278394 0.4831849632801998 -0.07007885494706245
C 0.2956764767474309 -0.6135455899888939 0.048562692683479555
C -1.1075889414865294 -0.3337229576183965 0.356288666941317
O -1.6422720973248075 0.9235674501673364 0.14643680112905044
O -0.6095990564601563 -0.8465710945163338 -0.950280105990439
H 2.2459286969543464 0.0691012201916756 -0.5509895124756435
H 1.008705016269079 1.3322490864211567 -0.6661676076362202
H 1.618204215292989 0.7355077369078177 0.9770612153897733
H 0.7283582676007653 -1.5556458562742028 0.48706999928196054
H -1.6792353836713474 -1.0918158187375617 0.92067448858332
H -2.182106775749627 0.8976908601672036 -0.6985777829595367
