9

C -1.1636872852518445 -0.2839849588803219 0.023538547819409547
C -0.04045846064593615 0.5763441462197932 0.4916728785805179
C 1.3173909544301279 0.3382008590846115 -0.12413593666459645
O 1.0215288363117965 0.06863522008333478 1.2001144854881782
H -2.112876929534008 0.1589126992181271 0.4248743949181491
H -1.267533713455901 -0.21198225296492762 -1.0873876852448974
H -1.0653948693823496 -1.3499790878792473 0.25508095633946365
H 1.4620010863005621 -0.5600946959179411 -0.7782476988986614
H 1.8490303812275424 1.2639480710365678 -0.4055099423375599
