14

C -1.6495122227776 -0.872221402375487 -0.5043107372410459
C -0.6839475690075687 0.04077273793528172 0.21563571080128324
O -0.419815446553256 1.1666308348832843 -0.5497721115796497
O -0.7187580758474554 2.2703378974788175 0.09415814293905991
C 0.5428276501866475 -0.7542309066076828 0.4958550980497536
C 1.8234465362638006 -0.24768034048481968 -0.06265540630764509
O 0.4474100838097253 -1.7609626243483758 1.1545102844634931
H -1.1559503627899248 -1.721344247595018 -0.9764663716067365
H -2.4475319154404285 -1.1660112278438197 0.1794696442968159
H -1.087026317365148 0.37955430815179286 1.1913225850390072
H -1.0178880935174903 2.9374738178986077 -0.5642743713228562
H 1.6198961715347004 0.2701466513194535 -1.0403701828060319
H 2.2004709350882217 0.5248407139448418 0.6143328995550967
H 2.5463786264157684 -1.067306212356861 -0.24743518428051786
