12

C 2.01801946740109 -0.3202915878274027 -0.16482957702736897
C 0.6933916918907458 -0.5501987021712678 0.4881056627050889
C -0.2929323035535813 0.5471551980469594 0.21410130947302788
C -1.68947796865155 0.23142181788297883 -0.18319245003447476
O 0.05611696475441069 1.720648024652785 0.3159898205104471
H 2.3107529231725317 0.7354993021321451 -0.2540407594173676
H 1.9160884132217755 -0.6752865686574464 -1.2347666642098778
H 0.259515411091509 -1.5004205974473126 0.1345000696028318
H 0.7749763692947538 -0.6355662000526495 1.6010322590487396
H -1.992990894984652 0.8722676813897247 -1.0529602022386535
H -2.3533259370616344 0.40789853625472505 0.6789766990035153
H -1.700134136575399 -0.8331269042032327 -0.5429161674158961
