5

C -0.5329681521824702 0.0165154155335336 -0.0029184904689567802
C 0.773293019443977 -0.012788801600462158 -0.030065740846615722
O 1.9314884209959684 -0.020717943556384677 0.4145679469221826
H -1.093771446951616 0.8995425860392445 0.26064067938913904
H -1.0780418413058572 -0.8825512564159315 -0.25533765825735866
