6

C 0.8785065635156691 -0.013224958815642038 0.3308077721616357
O -0.2705910663234505 -0.778433193515111 0.6402009780728222
O -1.1411716610371057 -0.40250292978691127 -0.30324773583037423
H 1.2250216165328163 -0.4128385402414534 -0.6522164263386833
H 0.5087904819116392 1.030324173446829 0.17563231869988338
H -1.2005559345995689 0.5766754489122888 -0.19117690676528376
