10

C 1.5042150116907014 0.3130326480490311 0.37051251251005873
O 0.7956641196863303 -0.21686559746875894 -0.6824282319589094
C -0.4544481093522516 -0.6814808669349971 -0.3520431302340937
C -1.340211796275304 0.3651258929925746 0.20740321026014338
O -1.0209647663447519 1.5291465875370287 0.3701573018592528
H 2.516216194101283 -0.18811461511785132 0.39606726354117344
H 1.707840465887715 1.3899097339602808 0.11410036654437475
H -0.44060648564691673 -1.5224696767492172 0.3681897136107758
H -0.9235164769613856 -1.0669789460829189 -1.2852817876300027
H -2.344188156785423 0.07869483981482092 0.49332278149723435
