10

C -1.681522405599536 0.34345720474956903 0.3429837745309436
O -0.3337296351634328 0.23032395389151022 0.7124788381869568
C 0.37399154050810296 -0.5549004861510086 -0.21917689634453988
O 1.6978291358181092 -0.5821542751612916 0.27362831610969224
O 2.1459702029356906 0.6513322653424218 0.3292079744756369
H -1.790005297098871 0.9320993866123063 -0.584777480574449
H -2.0800156077774923 -0.6858596997098994 0.269250284860212
H -0.04342303835197556 -1.572975587901441 -0.2585183585266421
H 0.3232869871728462 -0.01781139728565091 -1.1892285265476885
H 1.3876181175565416 1.2564886356134743 0.32415207382986966
