10

C -1.2943448796634107 -0.07508811184056037 0.11691584537859796
C 0.022394722270927894 0.471586545727955 -0.3646418627651977
C 1.2579541415686757 -0.22004870909162869 0.06883601616501556
O 0.0517532329801339 1.4363592552560633 -1.075491972969767
H -1.4907474906721327 0.407612451135696 1.0795163764105058
H -2.077734319411467 0.2841620843661612 -0.587875871462706
H -1.1954617229696918 -1.160853636290806 0.14220988752290364
H 1.7115553644794688 -0.796755780384173 -0.7621265623687044
H 1.0487327250357732 -0.8979083359021992 0.9404077106679787
H 1.9658982263817233 0.5509342370234863 0.4422504334213688
