7

C -0.642629950220234 -0.062162086646686175 0.005266851568392141
C 0.8402095410180673 0.152391471433838 -0.011226378151218278
O 1.537545862722416 -0.8422465913137408 -0.044165622474184596
H -0.8583923729325231 -0.777501631751173 -0.817169049545668
H -0.8728768856556097 -0.4883339882203653 1.0049776609201995
H -1.2128608275688282 0.8514487786051417 -0.1444447741422798
H 1.209004632636713 1.1664040478929876 0.006761311824766335
