9

C -1.050897849192936 0.4230904508734398 -0.01042617846835435
C 0.056708732492465934 -0.5014181889274882 0.2815557042796823
C 1.4101808743310784 -0.26629429063383014 -0.19797120414182043
O 1.6059355939994415 0.7642251831045968 -0.877967151297446
O -0.1865218303926644 -1.5331049217139496 0.9739995192568052
H -1.6500234866790489 0.6266171892194082 0.9169967055197434
H -0.6558887613119023 1.434325952156718 -0.3198029016162427
H -1.7302659034756134 0.02197958544097794 -0.8033349694582566
H 2.200772630229201 -0.9694209595198512 0.036950475925873166
