16

C -1.5723775456758506 -0.7824118954854367 -0.7347176728987905
C -0.507337326428204 -0.2767085955992328 0.22853480305410423
C -0.6987237616761941 1.2065745639909427 0.5095349733649537
O 0.2996340470976255 1.5886403289795312 1.3859756631498634
C 0.8051627230392722 -0.48845858006399484 -0.4000230438132591
C 2.037712540179386 -0.0822727884237491 0.3256225283842406
O 0.9350229613160073 -0.9873660171544487 -1.5017248768870066
H -1.3881040724024656 -0.2737686963204223 -1.7040064473614247
H -1.4193657036898366 -1.8495553646613505 -0.89145046622817
H -2.5831628964776288 -0.49807293540716435 -0.39576430674283386
H -0.6360704003594889 -0.8241580560805822 1.1912787956179023
H -1.7107778986768483 1.410801892371542 0.9166361708654341
H -0.5410629759111608 1.7358025187567712 -0.44147426984061144
H 2.2259134088355967 0.9929636877594276 0.0939806145808503
H 2.9158072758249682 -0.6955313939874254 0.004229627358833687
H 1.8377296250046387 -0.17647866867442472 1.413367907395809
