16

C -2.036367842266333 -0.037979390715738026 -0.27961768806191023
C -1.069080027010595 -0.8037135414484802 0.6299816638949791
C 0.12152225888524218 0.09314031271299657 0.9610128854305435
C 0.8517817642537164 0.5101135352108016 -0.23929212990617496
C 2.3063157418303213 0.26910258633080414 -0.39846281124611105
O 0.2618584791075578 1.0713837989255337 -1.1400585440511424
O 0.9098973232264224 -0.5304887558945687 1.9014704614362685
H -1.7818828564342148 -0.26000948915089445 -1.3243342152328255
H -1.8972224657928523 1.0531092840422565 -0.13636794331891855
H -3.091801253494424 -0.2737591553339633 -0.03582954034493229
H -0.7528341867976511 -1.7528871546897224 0.177142742619076
H -1.6441430430994908 -1.0358507762655067 1.542950708821122
H -0.30422222175807057 1.0095689225256108 1.4531958018165922
H 2.64310983029752 -0.6800740949548343 0.06110068964631184
H 2.605814510044011 0.21661045218053168 -1.4742166817193558
H 2.8772539890087923 1.1517334665251828 0.008347570485910345
