8

C -0.9723416663301543 -0.0639661573661707 -0.0059342781069342985
C 0.4565236161410935 0.2823553982513128 -0.08863744310137132
O 0.8926417037994641 1.4473154055364514 -0.2677182380398406
O 1.3993814319759443 -0.7300130419509722 0.037005564663514366
H -1.2588418414777052 -0.7875371845035349 -0.8181088440365458
H -1.2407504482569045 -0.4842637295045087 1.0057286925155662
H -1.6280672397673797 0.809911805041762 -0.1408989074124094
H 2.3514544439156433 -0.4738024955043396 0.2785634535180224
