12

C -1.8647200181655281 -0.35221795402976375 -0.04961953139666398
C -0.6688080619748831 0.5304189656291147 0.14745043817297154
C 0.687877103095396 -0.0105792082738049 -0.09517392602842306
O 1.6360651096322767 0.9796145209626179 0.14893848289923342
O 2.8480181116386336 0.5309691060213074 -0.0578037130435557
O -0.8151291255613331 1.687932385274271 0.50586966700302
H -1.545753420812086 -1.2940537307989592 -0.5420316869954457
H -2.256042515861102 -0.5519607396871595 0.9818651158370328
H -2.627979037210271 0.12239430186505336 -0.6849163924004414
H 0.9254583957517125 -0.8553001113342302 0.5648671046143938
H 0.7098936687320687 -0.38042342783482724 -1.1377817085343407
H 2.9711197907350866 -0.40679410779361314 0.21833614987220998
