8

C -1.033604130509089 -0.20104227548268042 -0.04447150535493967
O 0.251533816803859 -0.6130170823071331 0.38898642547210827
C 1.3641430080211037 0.16795407586813066 0.142857872301061
O 1.1960547651133724 1.2426439495501793 -0.4713893322896567
H -1.7120671327360655 -0.3306409744166078 0.8173285380397753
H -1.3374716460793075 -0.8914694485114428 -0.8592641635271179
H -1.038810103899417 0.8185138211691105 -0.4674579541821941
H 2.3102214232855394 -0.19294206586955928 0.49341011954095054
