8

C 1.333086551103007 0.029198430242270798 0.11058068210362995
O 0.19919261435944405 -0.6426128896582801 -0.26749113115788664
C -0.980904765008311 -0.0926174324057791 0.11769749143930179
H 2.203361922007897 -0.5041523641904879 -0.35739548942450394
H 1.397515381275081 1.070309079755736 -0.24331914668765253
H -1.0006912628141027 0.3633213999741351 1.1161901360625837
H -1.7693475572728543 -0.8977171097221097 0.12192153347771298
H -1.3822128836501555 0.6742708860045211 -0.5981840758131829
