10

C 1.3512545417781257 -0.24004402493767202 0.1614206170772094
O 0.6142195144579536 0.7004338873070075 -0.4864114252669465
C -0.6827420466938018 0.3797879296002827 -0.7493733258702642
O -1.43078389150461 0.1118911065973372 0.39998999142986563
O -2.663452741202277 -0.19015847546632136 0.10768592191470204
H 0.9641433646308146 -0.5295201266053039 1.163933039075527
H 2.3787707968795413 0.14963829537981801 0.30649202306778134
H 1.4678193234937957 -1.1972391852132296 -0.39899919497584396
H -1.1704925979684728 1.2694831709954084 -1.2177982578902384
H -0.8287362638710332 -0.4542725776573547 -1.455200656894629
