7

C -0.7413217262062434 -0.030212102556671405 0.04493130051891513
O 0.48390595306943773 -0.4147682239409135 0.5517737173032157
O 1.4673611704998815 -0.3089790348194875 -0.2975690475845873
H -1.2588365385608968 -0.80626923169873 -0.5301233026502116
H -0.6156196756470462 0.8656468340976211 -0.6107996123645043
H -1.393358964212505 0.231657322458328 0.9131701737494913
H 2.057869781057379 0.46292443645985554 -0.07138322897231912
