5

C 0.005922594659848446 0.009656443549314164 0.0028625370879106432
H 0.029188414760627415 -0.8433774973004385 0.7118925422433161
H -0.10882615907163615 0.970794607545281 0.5129102664342672
H 0.9557646058341868 0.007020121944930225 -0.5781798112976417
H -0.8820494561830258 -0.1440936757390867 -0.6494855344678521
