16

C -1.458601334792817 -1.0751865223324135 -0.34183059658326176
C -0.5412367872974786 0.11732986622991388 -0.20869147325120133
C -1.1072054597613767 1.0247112379726133 0.7895425037212612
O -1.2715806746724991 0.6387387348285171 1.9288580899191887
C 0.8359722111115923 -0.38744869957467704 0.16652797397905317
O 1.7484747754800152 0.6622437195182276 0.26044999671246355
O 2.918420169688786 0.20705142318563746 0.5821715960844025
O -0.43805711486443094 0.7534651762652147 -1.437804353065824
H -1.2970543066190487 -1.4834848707354975 -1.3742675183252053
H -1.2859284615859592 -1.8318320954453347 0.4411593890668777
H -2.5239504206928913 -0.760772879718607 -0.26404482151378983
H -1.373592635818073 2.0301146320409096 0.5030594406050135
H 0.8340370379807254 -0.9092527068169124 1.134490225060032
H 1.148964443608343 -1.0976693953412888 -0.6233792229588072
H 3.4567938295315144 0.7845360776816674 1.1529630370772608
H 0.3545447287035468 1.3274563022420593 -1.4247012263585375
