16

C -0.07909042845192785 -0.49982259182068256 -0.8834382842642834
C -1.1452847570135818 0.07552461373481771 0.023226389131481336
C -2.4444642630682227 0.18636042323877888 -0.6722387415019627
O -3.4054417696681845 0.6268276097392832 -0.0934441919173359
C 1.2389184102736126 -0.621297218291532 -0.20068784876388573
C 1.7850616695581873 0.6866505036466233 0.2894598881994189
O 3.0233896428021616 0.4817904029379866 0.9150655799383127
H -0.06678159981553852 0.03387492165576514 -1.8310861693134872
H -0.4209838530639471 -1.5480357431473415 -1.1196417876700808
H -0.7644955001691153 1.06356811061088 0.37155201284729034
H -1.2565705016171074 -0.5336877590947898 0.9571586302617581
H -2.5295193917121943 -0.12628529577841535 -1.6933311562595832
H 1.1015506871375365 -1.2887423939316485 0.6880532874885132
H 1.998107657191543 -1.1133510157560835 -0.8297391854093488
H 1.1326778096754422 1.119162786679508 1.1036729226627542
H 1.832926187941339 1.4574626455768624 -0.5014177059333134
