16

C 2.2609584003944456 0.19737099906281497 0.30064094998626956
C 1.058095887993178 -0.6593236658794575 -0.055143724989784766
C -0.1438513828473349 0.22267230643299973 -0.06116464653395161
C -1.422453571996249 -0.49046632040833693 -0.39960118745379936
C -2.5354358808002853 0.5007240636751312 -0.370064084560945
O -2.339762197864325 1.6700898054251798 -0.10490138058952748
O 0.04596578968759573 1.1984947436682098 -1.0557013293641926
H 1.9556795516937058 1.1563669472601328 0.7811265128854527
H 2.9003483672547845 -0.32633128054910876 1.0666186837626743
H 2.866341552901345 0.45844454942108026 -0.590792559945449
H 1.014207853223947 -1.4989077330916685 0.6404926219248788
H 1.200318137119712 -1.0478669407023586 -1.090374735576593
H -0.27000637361532476 0.6858201516853345 0.9300427087334106
H -1.3873501597609055 -1.081863128088767 -1.3146467550143672
H -1.6363678493481573 -1.2084211059040653 0.4423442684492017
H -3.5666881240361703 0.2231966079928892 -0.5833252861204667
