16

C -0.9339585843406343 1.470331302088576 0.2327115195849484
C -0.1849042889284116 0.15512450485368331 0.49906803827168816
C -1.1205332352073603 -0.9490356989508801 0.08788236260498228
C 1.0511175015502825 0.20475278615245854 -0.3786280274258641
C 1.8891775259413972 -0.9899942250817002 -0.24435114838263328
O 2.3963623420574636 -1.356490966529464 0.8053134886660585
O 0.6372627375332544 0.33156733067781896 -1.7018867596384537
H -1.7362912722652633 1.608597575194556 0.9770355051255467
H -1.368439153333417 1.3428257083388924 -0.7825553875221404
H -0.21022571581703223 2.3089100159957274 0.21680151626857114
H 0.05355807276450284 0.07256057881162219 1.567548406338193
H -2.1984709557067057 -0.6302246864860205 0.12115574533335483
H -1.0553108833049725 -1.7890720074307274 0.8278446781236082
H -0.9520840783533141 -1.3040850546321996 -0.9479446967410456
H 1.6523607361964279 1.1201857082341817 -0.16079666737219184
H 2.080379251213797 -1.5959528712364988 -1.1191985732346164
