9

C -1.4487351154620547 0.251899610961827 -0.18372161150025168
O -1.504330622055392 1.451386421130024 -0.18942751849076866
C -0.15425848213431467 -0.42085224547969424 -0.004652274055452812
O 0.8349614737635239 0.5491107024661184 0.13469444060699667
O 2.006217628644651 -0.05337775148427623 0.2967525681322561
H -2.3385849523498217 -0.3300112719645688 -0.308586288652628
H -0.19598269375422775 -1.0724223179051846 0.9163199871802707
H 0.11699649925648213 -1.0319412780902266 -0.8960788414479709
H 2.68371626409118 0.656208130365977 0.23469953822755332
