14

C 1.2168716349389468 0.06916094478079488 -0.2833158215852966
C 0.037845716717588254 0.08485190401777 0.6191830467718681
C -1.325763951096561 -0.10388569011635196 0.015291556531894327
O -2.3078405035402736 -0.059425640593220336 1.0175760261047664
O -3.475243136237069 -0.22835457952544697 0.43885854052496853
O 0.2071910651175446 0.2465782343296266 1.795527669654684
O 2.3564613846199722 0.2555645254182564 0.44879167517648355
O 3.4463867005773787 0.25652658170632886 -0.2603902126514659
H 1.2435613720762992 -0.8662626913176205 -0.909851392700472
H 1.0700702200679288 0.8934210102965894 -1.0416427547586735
H -1.3493304185740753 -1.1208911066001186 -0.4076590138641239
H -1.5027341774156946 0.6723794836484275 -0.7399127097530489
H -3.5452285402625066 0.49153481397029053 -0.25468885847267336
H 3.927752633010559 -0.591197790015287 -0.046824467399669154
