20

C 1.9272448600325542 0.7094501604849681 -0.9008580768150062
C 0.6574231865634235 0.47609724826208416 -0.11332340137229233
C -0.36254212308976214 -0.09515630470546951 -1.0630801247864408
C -1.6877503619453875 -0.3761878077279556 -0.39636737116038806
O -2.204285835286265 0.8000390447905456 0.12157378672527556
O -3.35028931984294 0.5179370939279678 0.6895887380658074
C 0.9506538310435697 -0.4528199374840522 1.0391419779868145
O 1.9282449011422476 0.19423405606818417 1.8259697690671581
O 2.2687475838202773 -0.5118884659770524 2.861402598119863
H 2.7002213955565084 1.2326740237045528 -0.32861214948886025
H 2.3026297823103112 -0.31826668345137293 -1.1769160273785546
H 1.6236785975233017 1.2600546436967481 -1.827803400514427
H 0.24199159731986802 1.417971452235052 0.3071297809626106
H -0.5591428375902997 0.6924968116940879 -1.8305355666188003
H 0.04942852614335813 -0.960232106852603 -1.5870386966258574
H -1.6075076616021657 -1.169926941944824 0.36123529402740473
H -2.37294101604403 -0.7367688023181888 -1.1969882124323135
H -3.942891404235439 1.2960773335114262 0.7840036568460068
H 1.3693448733121916 -1.410085738751661 0.7393110067259261
H 0.06774142486871951 -0.6064702301619529 1.692166418666132
