18

C -1.64073445343534 1.0897211122475416 -0.14106286091072018
C -1.0891233480230917 -0.033673798883157774 0.5997329513928357
C -1.6939975266236325 -1.3731662039680728 0.359749023382116
C 0.3140118570126236 -0.011524828436121203 1.006780646250538
C 1.281574817315074 0.09227346340967578 -0.17879287507659172
O 2.5910695821411465 0.1037081335175708 0.3531464565703572
O 3.4510017445037566 0.19083818917806958 -0.6161721465986978
H -2.3692537519394734 1.7141033532043999 0.42645368438320097
H -2.2092449608201803 0.7187463611355183 -1.0371190536793498
H -0.8531665123345569 1.7423624184150959 -0.547567466493113
H -2.781831106769459 -1.401267999798826 0.4211648714886314
H -1.3054957244999112 -2.1051222284515276 1.1004243592481813
H -1.3299326976683838 -1.7337761250239059 -0.631981581561771
H 0.5612425300604328 -0.9507137445453161 1.5449697951298618
H 0.6047114022658374 0.8138009358030895 1.691704091034188
H 1.1565007025949552 -0.7276133216006124 -0.8879148910919177
H 1.1195668874637728 1.0669030588810626 -0.7079500850479251
H 4.193100558756442 0.8044012249155157 -0.40016886433502347
