18

C -1.8976811166519723 0.8426226479509231 0.20595151263336736
C -0.7246732696242855 0.11593786708875246 -0.4370915187463052
C -0.9611034140691612 -1.3640665510418966 -0.20436279187866016
C 0.5351595095914734 0.5965717357898249 0.24178980035008085
C 1.773442987063449 -0.05103869658277249 -0.30740014031633567
O 2.8689344681460835 0.4627937284412456 0.38695971020232234
O 3.9735238531086914 -0.09660149901901734 -0.0831220567328258
H -1.938106670294994 1.8427920759051888 -0.26198398301660175
H -2.8034319501577323 0.24545079438518333 0.03162666204975748
H -1.6820195717735626 0.8747673522217745 1.2918140067815513
H -0.7251231244870687 0.38195116570379173 -1.4964165419908866
H -1.2482156064796517 -1.4747475032131852 0.8782886278184165
H -0.10253371571805266 -1.9670162917986902 -0.4901407427734279
H -1.8726952746219765 -1.619648496126999 -0.8138086283694688
H 0.6123470602921769 1.6853001579465683 0.034300064790396864
H 0.5035331393686706 0.4198738009497473 1.3201785871874776
H 1.7551266402088512 -1.1466543660480157 -0.2976060943946962
H 1.9335160560990818 0.2517120774475448 -1.3803760942737429
