17

C -1.7394337672464726 -0.690928810776892 -0.0055118949086478426
C -0.46769017191895057 0.05933516516924261 -0.37271851943636375
C -0.5535849365135719 1.3976076935419903 0.2941445311004325
C 0.6867211309737544 -0.77777940190096 0.08001382113502145
C 2.0306410900447527 -0.16508411159813974 -0.21478145431050755
O 2.237475381940411 1.0514216470683104 0.3727029200095898
H -1.5862025429592175 -1.7923348058188868 -0.004497352220384469
H -2.5543616516955137 -0.35723430918649907 -0.6457880625181831
H -2.021760242270384 -0.44020054553506355 1.0581849501031921
H -0.3849831418434564 0.2232085420322058 -1.4595974535380116
H 0.20226505147256751 2.12345217256383 -0.04284287816879457
H -0.5941598922071025 1.2950650361980816 1.4097757791077914
H -1.5433846400639 1.8391631025062936 0.011650149425871876
H 0.6180236555312559 -1.0602284164752922 1.140336647864053
H 0.6513986345524815 -1.72365237688093 -0.5031118073117853
H 2.795438716708342 -0.8772916432233896 0.18580238577755614
H 2.223597325494961 -0.10451893768395724 -1.303761762110853
