18

C -2.3461576416639156 -0.6974853708146138 0.04565613226960004
C -0.9590189797359393 -0.2876959267266613 -0.4099901577449616
C -0.92147275726456 1.2259828361968164 -0.43854220556599083
C 0.06926124497401931 -0.8168014357923141 0.5661267419052732
C 1.464232520023115 -0.42177423867774216 0.13218190656544432
O 1.5987938864481863 0.9482946616365091 0.07329170266324667
O 2.775971027629725 1.3485446701281014 -0.29314760749394003
H -2.375903354125794 -1.7140003406567574 0.4512695580319446
H -3.0967776346068456 -0.48664924247588875 -0.7324684997655118
H -0.7519609874020314 -0.6271514116075371 -1.442383449228154
H -0.5888212617164726 1.612254430038595 0.5468688633291778
H -1.972727703893108 1.5915989240439234 -0.6216065385297814
H -0.2303466434857774 1.5922088160856127 -1.2232571668286794
H 0.03437201466815516 -1.902453806834297 0.659604317764739
H -0.09318729655574423 -0.3502484347748544 1.5594596169018038
H 1.6729943395719378 -0.8493358247934512 -0.8915268773445576
H 2.2358587121448212 -0.8252289693976378 0.7876355938026571
H 3.4848905149900262 0.6599406644221506 -0.22205760639804856
