12

C 1.9788010051618192 0.03058321219792552 0.01149573387477834
C 0.658449124327787 0.04016008701807021 0.005333410374237537
C -0.25005552533004305 1.1793373616338692 0.05807629196276726
C -1.4592816632784915 0.6873734458566444 0.02724359783226168
C -1.4262506872412604 -0.7717132871659672 -0.04600224154996905
C -0.1672838414118685 -1.184325692020053 -0.06042667151546075
H 2.5077067605872605 0.9679035949582633 0.06131957238807316
H 2.5594917816494447 -0.8724874735607427 -0.031032135998671568
H 0.08298956893715408 2.2273496261824324 0.11248131272452508
H -2.3524272802096697 1.3186345980395862 0.05451048737713123
H -2.3016475935203013 -1.4103665443253133 -0.08255056242669205
H 0.1695083503282132 -2.212448928814713 -0.11044879504298094
