22

C 2.0354614266874083 0.3978905769080317 -1.4732523219110467
C 1.8837891105286697 0.10634530983390167 -0.19935584541058554
C 3.085117933866507 -0.07004357063779801 0.661392597436661
C 0.5293628405937343 -0.05614548552313709 0.42206084916586206
C -0.5653350812837417 0.1511299165702547 -0.5677179622675186
C -1.9206230723270168 0.013598582634739004 -0.05618135816132934
C -2.749175096417972 1.0521986167407338 -0.13286773891528075
C -2.4823985973774665 -1.2209027447777614 0.5641694381571632
H 1.1954852541885443 0.539817054399626 -2.1570163133280214
H 3.024910585015167 0.5080970101071521 -1.8899366209626078
H 4.0100799570688475 -0.14167035983317078 0.08742935895614827
H 2.9459652189004024 -0.9437894064795521 1.3328628411490988
H 3.1616558814358275 0.8660870125105065 1.2873287512284424
H 0.5260266675523824 -1.0057362883948704 0.9414781485122328
H 0.45398219367841325 0.7474973538011411 1.1886410436962218
H -0.4578942044959253 1.1303083205884974 -1.0684484233643896
H -0.43742226249498367 -0.6103621864297679 -1.393134840545262
H -3.7726285715214427 1.0365581849676646 0.22281779673782598
H -2.438791337539902 2.0126260833624183 -0.5722246498726901
H -3.2827261367244676 -1.5810232837179956 -0.11671652607527631
H -1.7608016691333543 -2.0224780126853426 0.6836843842808159
H -2.9840410401998483 -0.9100026839453232 1.5035487167796706
