7

C -2.112708097733327 -0.0903155313357103 -0.047298308128848957
C -0.9072425014377703 0.12383782062230252 -0.08480851977518519
C 0.5069430251060548 0.36240188534364426 -0.1418929387742792
C 1.767177154264591 -0.1846272317035002 -0.3232886281503799
O 1.6228902330487591 1.1705578281193225 -0.08041887285333724
H -3.156707877052124 -0.2644533262195076 -0.016961559288747926
H 2.2796480638038146 -1.1174014448264817 -0.5191089733189003
