8

O -2.592224419987599 0.4407119805984488 -0.7047861955522917
C -1.4639332801015517 0.8084155691827034 -0.4485685798201905
C -0.2878434396843601 -0.07676797563516542 -0.3462683992080255
O 0.5930221924766734 0.3484442908469249 0.6487457394072432
O 1.6362738411362656 -0.39225143861185013 0.7767044732174063
H 0.2921722295471072 -0.07795772255067314 -1.29301885423343
H -0.6812843225097008 -1.1078894368084857 -0.10116093256689719
H 2.503817199123153 0.057294732978105826 0.6688782143643375
