6

O -0.38948100868305596 1.3318155395756093 -0.13027502698273363
C -0.36917174977994976 -0.05602007159549127 -0.007658908753233163
O 0.9094914247821149 -0.5425296222847653 -0.21003236134094133
H -1.0380817773601587 -0.5549934006310586 -0.7241789379272902
H -0.667325533736228 -0.32210563551612714 1.0239837268185146
H 1.554568644777277 0.14383319045183218 0.04816150818568301
