5

O -0.5667732456382915 1.1079541986385706 0.6159459570617226
C -0.471346027766788 -0.0048555876644198505 0.036686448387886865
O 0.7834326826694 -0.3550403478935845 -0.4446090558843434
H -1.3394280174977027 -0.6427869356679737 -0.07009306655144718
H 1.594114608233385 -0.1052713274125884 0.14014609494245064
