20

C -1.438108629580218 -2.185907810490406 0.2010242079177248
C -0.7097893478922457 -1.2988569210451841 -0.44339066667026145
C 0.02302949611656388 -0.1991118679934064 0.18879042048046338
C 1.5043738774152526 -0.3630958174456677 -0.17870246368516934
O 2.2598306480787906 0.6647492766336143 0.40002651404092154
O 3.5010844978941744 0.46995572604456515 0.052261751990683156
C -0.37878701126447184 1.1694635562346383 -0.2555342970997982
C -1.796122629184861 1.5368092671680782 -0.01592939156756185
H -1.9411813897012435 -2.960426862653957 -0.3537551382185091
H -1.5657084894222169 -2.183900502671311 1.2862048707211693
H -0.6585156870729009 -1.4028711192220904 -1.5174402985019935
H -0.05287821812772595 -0.2978842757716203 1.29049369837027
H 1.877758380856786 -1.3690726354922154 0.11397704811748953
H 1.6500526531691821 -0.2910278269109325 -1.2737138879644896
H 4.060853733659908 0.4942412549167671 0.8601935198725666
H -0.13627877269414415 1.2878229125442702 -1.341430906632168
H 0.27085095142024 1.8974663456290444 0.2735643069212182
H -1.9458654634119943 1.7896284295657086 1.042741305739342
H -2.013062879495039 2.460475124589196 -0.5963279829696173
H -2.511535720763796 0.7815437463709327 -0.39708487888729893
