21

C -2.7301387950099723 -0.5897061361753269 0.24066330244083153
C -1.543907005929469 -0.025707309203512104 1.0378721018998698
C -0.4475707257275609 -0.3864470433425667 0.05707939417955573
C -1.1526558149595718 -0.016717625822943876 -1.2427505956911973
O -2.4947756512490153 -0.20814549150781617 -1.0507448869528484
C 0.7961584488236131 0.43383726176327486 0.26077454357895075
C 1.8405925233936515 0.038395445462937 -0.7289293930245162
O 2.9811553121615515 0.8384479318088345 -0.49105396850857397
O 3.9481154154508604 0.550006104800862 -1.3224650207068163
H -3.69054355144725 -0.2746329726450384 0.6559521707065001
H -2.614880315759528 -1.703997463448511 0.2908106792534448
H -1.6427369113778192 1.0890682673801282 1.1243165414608813
H -1.4573953752848794 -0.5206424954180843 2.001450811924621
H -0.2864746564273243 -1.4679798788015768 0.12252897046037985
H -0.9875214546662345 1.0963804266631756 -1.3511193648082147
H -0.7251722175065427 -0.5377613751191151 -2.1122068038507305
H 1.1795828821832708 0.2838163632298592 1.265295200055747
H 0.5394356882083171 1.4894806858046508 0.09668075733447198
H 2.124977778944253 -1.01897930459801 -0.6119458683379073
H 1.558953800842034 0.25260830402438533 -1.785559924889456
H 4.804800625337714 0.6786763051444062 -0.8100346652794118
