19

C 1.930822470261006 -0.6179385049711364 -0.7212449494354546
C 0.9737351550601923 -0.68625212095645 0.4495588383329528
C -0.004740658796790497 0.43899690014573267 0.4206749439856733
C 0.5114191068657515 1.8497337568195704 0.4757213804667602
O -0.11017080023327575 1.167964652553993 1.612024957681498
C -1.2665463040607523 0.2816033717008738 -0.40961364491967434
C -2.102373995155968 -0.8868326618434862 0.04376564696341637
H 2.9747926941984004 -0.4450356024681977 -0.40610948345480335
H 1.8265959994747911 -1.5726501862990026 -1.2818531168130967
H 1.616387510393302 0.21235855769619888 -1.3718774702611534
H 1.587667691273867 -0.628503136056818 1.3619182257781857
H 0.4393661919312257 -1.65979530642294 0.4935533228047712
H 1.5907424939590198 2.0231655994335846 0.6047880748224708
H -0.14421923006155538 2.6664176636729002 0.1279238053380401
H -0.9621479270763598 0.19187223080433527 -1.4638269231831964
H -1.8608422795309336 1.2222917230744599 -0.33665869612977095
H -2.129622537867522 -1.6222294236376562 -0.7861046297129746
H -3.147387804277549 -0.5800323151618133 0.22404432381922618
H -1.7234777763568072 -1.3551351980841575 0.9633153939171211
