21

C -1.290669498881974 -1.6967256951218679 -0.6611428952702294
C -1.4870703032268069 -0.3474446842660306 -0.08875959078453068
C -0.610754544260922 0.7446417009712137 -0.012198232979377307
C -1.263915383960623 2.129911760203637 0.22345547371919744
O -0.8311516926855242 -0.11714579313268937 1.18410030599749
C 0.8467091269461535 0.8586839202944492 -0.2304122996235701
C 1.7264693316312327 0.02441969900221098 0.6763653817898616
O 1.4120703860097643 -1.3195003189146899 0.5030849508825329
O 2.1185430765970565 -2.1134255043707064 1.2427357131030827
H -2.2648197791297173 -2.062495424926572 -1.0914603034813586
H -1.0729084920259515 -2.4178360586938985 0.15459738678371004
H -0.4787966226458898 -1.7914851968280499 -1.3991059950334488
H -2.5872108008883106 -0.1389612285770227 0.09997865281031386
H -0.7355873877980393 2.554899578697496 1.0990663899323678
H -2.3239658354575226 2.023284233557094 0.4680369649109159
H -1.0558956459016537 2.701788857885475 -0.6818972697255666
H 1.1300753931166294 0.6227859015529553 -1.3028224752799669
H 1.2165049324006638 1.8989921360664512 -0.10255080532491266
H 1.6537579126335598 0.34148994543110106 1.7337718062347407
H 2.7996725123441295 0.12039624270968297 0.408487715787842
H 3.098943315183549 -2.016274071540552 1.0994467510248198
