20

C -1.5583430884785554 1.0764280478368093 -0.7177158105054471
C -1.8292958071781709 0.13107645832623363 0.4255240839142816
C -0.7185645035251177 -0.8244150708083436 0.6668292228862153
C -0.9771717630302489 -2.143576938681703 0.48645505809187084
C 0.6303730067186574 -0.47638974218271035 1.110378725271458
C 1.4092394473360474 0.4056542951355062 0.18040114573789576
O 2.691775776886102 0.6670646781521117 0.6813185010310715
O 3.3602958223427954 1.4293675503100651 -0.12605804251749744
H -0.7627679947704346 0.6226096749995393 -1.3369462595812547
H -1.2876825124506956 2.0962693142086533 -0.35337373857981574
H -2.495370978575311 1.1392053810323446 -1.3518103350264326
H -2.0918822886745705 0.6966564373074217 1.3538842931529391
H -2.7585871401824336 -0.43668780355201914 0.17407345363999197
H -1.9542967778091342 -2.4966849346146907 0.17801648899437253
H -0.21856337389577335 -2.8959375187278464 0.6431569124800013
H 0.6436042333053943 -0.008486153213017855 2.1364697236991175
H 1.264068735425138 -1.4003285522395532 1.258097646774028
H 1.4982826003868412 0.025459938226020103 -0.838250931341831
H 0.9104460942743094 1.4104055625572383 0.14175780776982086
H 4.244440511895048 0.98230937592791 -0.32282092189286316
