23

C -1.6941875644464561 -1.333882038588405 -1.0180001266357868
C -1.7719153002687158 -0.09109120104197252 -0.1296927271299206
O -2.0086592409467086 0.9822420033506231 -1.0029832829738023
O -3.1228280653286293 1.559299763039692 -0.5895662988323953
C -0.37410363818985976 0.15899460616976385 0.45113519760964554
C 0.11168016971723975 -0.9899330586547507 1.2674433662789466
C 0.5019222716089276 0.5081956333667093 -0.709744389408752
C 1.9237024845993418 0.7888951332673831 -0.32796424760013754
O 2.5015162309332677 -0.32896782665562213 0.28824960354068535
O 3.7410381322631645 -0.068747628371755 0.6157718076925031
H -1.3161503175525222 -2.1483758318732478 -0.3893354700578936
H -2.6845900037093084 -1.5246152859257542 -1.443778237992969
H -2.5310573796040767 -0.18919321594637617 0.6480497395116701
H -2.8534148908921395 2.471325881298204 -0.26823648951729734
H -0.49688024920140217 1.032300354301272 1.1313488170948525
H 0.5374665235267542 -1.8218473704375238 0.6592349807272037
H -0.7438419695695044 -1.3775552984917097 1.8768157351586963
H 0.864501716696863 -0.6372274947738763 2.0044120177877875
H 0.465266729613734 -0.2795001169667694 -1.4581207203472193
H 0.09039663969885754 1.448513237899794 -1.1586865129202752
H 2.483722571521954 0.9828051857478497 -1.2755283523789485
H 2.0327736229924733 1.7083473865055634 0.27700090566370394
H 4.343641526536775 -0.8499828172190802 0.552174684729673
