21

C 2.202301361339616 -1.168622397042587 -0.5638388780161415
C 0.699958453125208 -1.0415448782594914 -0.6304341587231419
C 0.2316386194241644 0.33447222891372824 -0.2106451732673576
C 0.638044447470725 0.6547791542735357 1.199206224203117
O 0.6743807624204807 1.3168218871520037 -1.108830190347295
O 0.2657520138721021 2.5114746858700663 -0.7412626533634147
C -1.2812572518425132 0.3307424338623068 -0.3037537777323173
C -1.9228838536124944 -0.6905902296470245 0.5765029615246877
H 2.5250265791955475 -1.163209755269454 0.4917240385489528
H 2.5125535050788 -2.1064069827147613 -1.0260536401041656
H 0.3908480322158087 -1.2891804522923802 -1.66310683043209
H 0.19460852159340197 -1.7738315095573645 0.03351279139544868
H 0.5483549021059844 -0.2619931550540328 1.7978812147708443
H -0.027187573884738803 1.4755331752998457 1.5643107002177283
H 1.6759063960603404 1.0709590002546308 1.262772308049927
H 0.18695583712875433 3.1435127213493184 -1.4762284196252826
H -1.651347443838777 1.3677299001975076 -0.10798963742461636
H -1.4997042629094752 0.14868451294685905 -1.3961878676483719
H -1.2587279738652695 -1.1413044546540208 1.3175808353588603
H -2.8032810294052393 -0.19978148589153735 1.0655091640014753
H -2.301940041672424 -1.5182443997370778 -0.08066901138689085
