17

C -2.1494313330772665 -0.6270782935242553 -0.2517332418465871
C -0.6965931283435072 -0.7519022407318332 0.07346381633645087
C 0.1299692917774366 0.2787172609388117 -0.011823818772753509
C -0.4035796220502858 1.5955323640437593 -0.4430850703507418
C 1.5512536977729823 0.13284489922566955 0.3121292560060416
C 1.938175065128514 -1.2552026041015898 0.7310900465231366
H -2.313330790679201 0.22915555080564196 -0.9700115375108034
H -2.703649588245696 -0.3239190347982958 0.6774732752409038
H -2.4855218218714454 -1.5779232299995782 -0.6659804189503694
H -0.3311899936165048 -1.7329474133299356 0.3883126902447271
H 0.289320709106211 2.4138893801171113 -0.10631560539278664
H -0.44923940948084845 1.6191398201702178 -1.5562225430453436
H -1.4013261135580084 1.8102672623257814 -0.004062697170814207
H 1.8219023058545551 0.8888174625299724 1.0682146649434678
H 2.1822808099581166 0.37826122600881373 -0.5901773310903594
H 2.758859666789861 -1.188276761171761 1.4697013308854263
H 2.2621002545350146 -1.8893756485084998 -0.12097281604958598
