19

C 2.193993296016242 -0.8200098978818454 0.696285023454074
C 0.8637616988596776 -0.7292101952709739 0.05106072851848669
C 0.02147433178525567 0.23478093928173457 0.309891899358545
C 0.3973857735949783 1.278939059905069 1.2798451763297578
C -1.288299552900732 0.2856915759319101 -0.35379655048228814
O -1.3061843862853282 1.4674491486526302 -1.1239899800867745
C -1.5098412873294578 -0.8534674031004839 -1.3112819024957092
H 2.9738222766309694 -0.256304711034921 0.16111226787724858
H 2.4797637139816215 -1.8799347715738246 0.7664327652345037
H 2.0980577011519297 -0.4345260023363296 1.7387127858419285
H 0.5851404973765569 -1.493796189628649 -0.6610171976663561
H -0.04809443954037806 2.242183627057187 0.8927653922397182
H 1.4983448271720297 1.4681449198143146 1.3097505829226903
H -0.01801302544630626 1.1134694725011318 2.2905377307644588
H -2.1302896980991832 0.28462925407457146 0.3757658561294439
H -2.0641824886012627 1.4173614976702793 -1.7613100136147277
H -1.4358727714784403 -1.8445190711576767 -0.7992039667131414
H -2.541236256395802 -0.7293392343271391 -1.726245437597809
H -0.7697302104922785 -0.7515420185770524 -2.1353151600140965
