21

C -1.745493269344481 -1.153025111515238 0.10611883057921048
C -1.0891424698974645 0.0653521361524124 -0.48742286852263
C 0.16359822008705582 0.47047894704154236 0.22847268105490964
C -0.21076025763462233 0.7669414084632948 1.6389503386013835
O -0.09855883282406525 1.8804410048281217 2.12612166878467
O 0.6315113799088873 1.6427430510681813 -0.3667747638539629
O -0.2541553905950545 2.5875590754111593 -0.27339457261665145
C 1.2538438287537286 -0.5488967731182635 0.19807486644353747
C 1.7208285013794709 -0.9099830963435854 -1.1712011743871673
H -2.679484901631294 -1.329780193054277 -0.4697158000524192
H -1.114267569635325 -2.0584805900419236 -0.05725222020699399
H -1.9965868193190466 -1.0095236243947994 1.1749993667219687
H -1.8173978815207348 0.9102899002098592 -0.3298610250592759
H -0.9817642534591885 -0.05185234892534871 -1.5633497492864439
H -0.5998643795368447 -0.0028262556591957277 2.2892548324950437
H 0.19202211375268738 3.419777824830189 -0.022182492939824147
H 2.1179288367226383 -0.13047908013991746 0.7547874460743408
H 0.9076409110779098 -1.4548181879438882 0.7148549992745085
H 1.8991185120945406 0.001619408686429397 -1.7553966971734898
H 1.0221795183311717 -1.6151372454328015 -1.6779416304851151
H 2.6788042032900243 -1.480400250121969 -1.0571420354455745
