19

C -1.3580997638311978 -1.475374143144536 -0.06243431540634205
C -1.2032065863447965 -0.01990588363784253 0.24315606341251386
C -0.08464770465062539 0.6382917096751682 -0.5397445312317721
C -0.07429104106000488 2.1053853807199068 -0.10386101064374596
C 1.2318865147148244 0.05417081910025756 -0.06207220163694751
C 1.3298203899922871 -1.4206639028353436 -0.2579835999958368
H -2.2714553757818 -1.6279360661564473 -0.6402865892618648
H -1.4472768152339779 -2.039783529277286 0.8990269135486153
H -0.9397913406922311 0.11559040052289649 1.3221033369476531
H -2.1638757413648486 0.5182746232195412 0.042275646830803065
H -0.20857420543544067 0.5398243801540555 -1.6269760835012534
H 0.7433341038565721 2.662437402907478 -0.5582017901379452
H -0.07171468771597989 2.1084971202431118 0.9986644745848391
H -1.0690344918530448 2.5085167656977054 -0.42283159243679663
H 1.3068151389592215 0.28253802182460985 1.0371595597466174
H 2.0954234240853613 0.5539952789454814 -0.5463052672259017
H 2.405064018428709 -1.728240036000176 -0.36588905303902586
H 0.8240289863666591 -1.795933660609812 -1.1626085605419658
H 0.9555951775605038 -1.9796846813488242 0.6210563495612735
