19

C 2.2819284268002624 -0.34322704342570315 0.11351664744472258
C 0.8653579155297881 -0.10472001845469522 0.5860064648034059
O 0.43866241339826023 -1.1635317719565506 1.3739323110205919
C -0.07938473322042452 0.021338171005879467 -0.5925361938746526
C 0.39253197024189174 1.174282351104947 -1.399874668798569
O -0.3713225439278952 2.108903330721021 -1.5641738389111022
C -1.4719894294861888 0.3383973066008234 -0.11177862927100245
C -2.0245600005119795 -0.7274379048347626 0.8012952387149141
H 2.6828778486740714 0.5584083871295904 -0.3595482486332268
H 2.2567550511620293 -1.1876273691661896 -0.6230613081572332
H 2.9013453793629216 -0.6121221456680499 0.9929811343397051
H 0.8807200540199965 0.8159931061475894 1.199442236115884
H -0.04468326616507889 -0.9053821200133041 -1.1989868092049574
H 1.3990008044645321 1.167417790439699 -1.8266046739143702
H -2.1417777182502253 0.46997568932466427 -0.9790359683526775
H -1.4127531949727634 1.3154813326034496 0.429861122422223
H -1.6669766651868694 -1.7280175410252119 0.5312084148137044
H -3.141087187876866 -0.73049571361062 0.7826725206419737
H -1.7446451240553544 -0.467635836922563 1.8446842488007265
