21

C 0.08445209839396974 2.091998259152556 -1.0936889017450517
C -0.5135559464254268 1.4905971453073108 0.16754470581098121
C 0.04464752924424295 0.1793008745045119 -0.2961227532524964
C 1.1686653034743573 -0.31152715839550854 0.5900808949300403
O 2.0101058123150377 -1.1965265985791438 -0.06842494005265398
O 2.9419861797056086 -1.550456230816522 0.799843312225574
O 0.5622690405348764 0.8367243776878606 -1.4083965972091372
C -0.9551256622230946 -0.880933297880027 -0.6350647903864429
C -1.8428467342878299 -1.270676651434531 0.49908702906908525
H -0.663502161587009 2.4332513558470397 -1.8321777382935012
H 0.8440314621124874 2.8558724249732195 -0.8252791621736087
H -0.07492834013081104 1.8615521930374554 1.1099724235886481
H -1.6221029409831496 1.5762884771609948 0.15662584154956438
H 0.7241528177337325 -0.8515619733342108 1.4474621555439284
H 1.7908470809706356 0.5223507258661888 0.9717259784308808
H 3.7653688307925006 -1.0317198159407626 0.5315009108504004
H -0.36232547335480647 -1.7997190400832501 -0.9144024241630966
H -1.5773026882014785 -0.6470466964931048 -1.5097460445255626
H -1.3102804546288036 -1.4296013741041043 1.4529776796038592
H -2.2814136212938485 -2.2785527311503087 0.2356288044896648
H -2.7331421321610785 -0.5996142653256971 0.6208536157089354
