23

C -1.3868525032582197 1.5838510925308185 0.7006680023529209
C -1.2806956724945762 0.24815078274658736 -0.006541611879717967
O -1.5685313329703705 -0.8089267523071952 0.8324110750654607
O -2.63105591589324 -1.4295537930938125 0.37768242233457594
C 0.06736279368095535 0.07592524228409984 -0.670598586532906
C 0.047569480598722354 -1.2961686882786083 -1.3417484810252498
C 1.1976654745857145 0.05522294929401028 0.32125510806153895
O 2.380544970706184 -0.10791187554457984 -0.4117892556091111
O 2.9994813078811164 -1.2052194912232805 -0.11586269348803084
C 1.3307624837216185 1.3173254419934337 1.1121101659798358
H -1.2097843731714308 1.3921350802838681 1.7822813374161366
H -0.7436127999529077 2.356677667400037 0.27976923645678237
H -2.440350167572436 1.9820772803709432 0.6361267553884805
H -2.0316762608097334 0.2615481286206549 -0.8175648232210868
H -3.467232058370351 -0.9370118753389756 0.5032381263830235
H 0.17618957271193736 0.8343254498079966 -1.4450046529543394
H -0.9417564747115441 -1.5525529374873512 -1.7345406715454263
H 0.3083284668110694 -2.0757768196552124 -0.5683831502900669
H 0.8061785545863637 -1.3650464618198503 -2.152114952019906
H 1.1065888840328972 -0.820437035982273 0.9737389229449582
H 3.3896667869722292 -1.594043329143678 -0.9367092346876746
H 1.8632082102780663 1.0422890534596223 2.0683880295510106
H 2.028000572637896 2.0431208910826095 0.6131889313187054
