20

C 2.1493389415480246 -0.45807390291828026 0.038090073679538955
O 2.8784226270892077 0.6285533042527723 -0.42453989937852726
C 0.7643483571407866 -0.5188841977835992 -0.48199708795718577
C -0.24883165262379106 0.18496252568171032 0.3416526926690035
C 0.16027930162673204 1.6453852111880514 0.40656005995014854
C -1.6493011264171578 0.11688814701393793 -0.13074519367126444
C -2.2331032416315826 -1.2569187114844604 -0.2370717695042085
H 2.7453660733980945 -1.3814588315742073 -0.19463185244754974
H 2.100260210491776 -0.3870972905470389 1.1533960079454544
H 3.7119819090134087 0.3536754824654003 -0.8870376160954621
H 0.46207521054062883 -1.4346428824726165 -0.9646395480414961
H -0.17949462483845113 -0.2050434558487051 1.3826594695836962
H 0.6053004982704071 1.907796588573297 1.40171766881861
H 0.887281725723015 1.902727537374439 -0.4177995850911965
H -0.7187070817398632 2.3102616058757626 0.2874712249134202
H -1.7817094768650732 0.6092166536876993 -1.1209060416339518
H -2.287233782785069 0.6916249321240342 0.5741056252179356
H -3.3478469315206105 -1.1152751895572497 -0.3661224618969131
H -1.9055629892264299 -1.835182263436232 -1.0974299533315173
H -2.1128639471938713 -1.758515262614738 0.7372681862714328
