19

C 2.1044905985315605 -0.206741365554748 -1.1677007086496924
C 1.6359527027405416 -0.09421503105845327 0.23881077795070021
C 0.37382533561804676 -0.16182114393609914 0.6009751865763855
C 0.004208330546141099 -0.03967235720749952 2.0208786261116463
C -0.6719569120209847 -0.3585757064233907 -0.4182332869574773
C -1.67809667067194 0.768444084491351 -0.45565282823376
O -2.6093802200628007 0.4674475324328802 -1.453348539960837
H 3.188144693395206 -0.4370192118182544 -1.146516259303577
H 1.8849193842039422 0.695291541719722 -1.7597217363711963
H 1.6400858418442172 -1.1343117267505005 -1.6140792272596207
H 2.3944811069290917 0.05536039370703692 1.014374854319877
H -0.2910482074181169 -1.0326865304658515 2.4655631440220422
H -0.8136438994789751 0.6989639055195983 2.201604956010827
H 0.8670820694983236 0.31598773453681167 2.648386820068958
H -0.2629695359229944 -0.43787481067483935 -1.4485985733989584
H -1.2640048308076384 -1.2810208775272036 -0.1508110116950053
H -2.252974550317796 0.8635580441907618 0.48564532607637667
H -1.2175574298327243 1.7381338271364692 -0.7350451734492931
H -3.031557806773145 -0.41924830231779714 -1.326532345857279
