21

C -1.7602137430055333 -0.4280007710030706 -0.7606866935298084
O -2.0843811571556663 -1.0212840982785583 0.4581767558586211
O -2.752737595779009 -2.130016844691208 0.2769858152420621
C -0.99246819319742 0.8429917386073315 -0.5284795711755979
C 0.28571225586396565 0.6450713491951929 0.21179431122762163
C 1.0714981234389909 1.9179115710194898 0.45375195739152885
O 0.468860772320973 1.2095813883525575 1.4655604323293734
C 1.0698283425304833 -0.6133986463289143 -0.07521341839930949
C 2.3325129297718172 -0.6728361669041001 0.7446426594271003
H -1.214525541664459 -1.1400013956551427 -1.3912525180041821
H -2.7169473785698317 -0.12512788652964468 -1.2778203069495988
H -3.615501539004911 -1.9886194244528805 -0.1714763363887018
H -0.764710534256922 1.3337779942068433 -1.4968384735981306
H -1.6868118669531953 1.542231256990726 0.00935907166690523
H 2.160889686818731 1.865340166289614 0.2867297738015619
H 0.5803239916657321 2.898296249111494 0.21253449457854467
H 1.308143687798388 -0.6369808290813378 -1.1564557697613784
H 0.39901810429021434 -1.4668989263691163 0.15796542987112
H 2.1570782306414964 -0.07486057593526611 1.670041034220377
H 2.5920127211809363 -1.7039959483089018 1.0668831466179856
H 3.162418703265256 -0.2531802002349754 0.15407249671512765
