19

C -2.0210208728122487 -0.461651382279815 0.5836312742163581
O -2.1011687317998966 -0.1437361832340134 1.7516836957592243
C -0.7874745739027438 -1.0647151360375393 0.07755411211119834
C 0.49239250747041613 -0.34723431973662516 0.37386641347519334
C 1.56694580412973 -1.30560492923649 -0.25660231766747815
C 0.6840493205863564 0.9497144515555257 -0.3455963908256072
O 0.6517591578309035 0.6459458634828251 -1.73053292858575
C -0.32128244234378844 1.9992990584730301 -0.02989801056592657
H -2.8597820491380577 -0.30016583598155583 -0.08690872020148296
H -0.6700048656789648 -2.100040372342469 0.5192742101603655
H -0.811490058627756 -1.1691550880494443 -1.059243218681189
H 0.7447945732678091 -0.2991498994768706 1.4570228977109838
H 1.2838217147754651 -2.352541375741187 -0.0696664326560533
H 1.5745113230367576 -1.1354765087190495 -1.3409278390772619
H 2.5480045157981497 -1.1460413628368904 0.17686655029162357
H 1.715960616751538 1.3641916217376882 -0.16957319251658073
H -1.3569308751257858 1.6368985398274967 -0.1775120694610755
H -0.163553614336794 2.907153826409756 -0.7052177280391531
H -0.16953144988106708 2.3223090321856446 1.03177969455262
