19

C -1.6249557278130602 -1.0133324624367726 0.029312371896373746
C -0.6656377658602075 -0.41275975202005344 -0.943059377214117
O -1.4349648716264 0.25404739631036244 -1.92399260606264
C 0.2188296898013071 0.6524689900348174 -0.32374634722481427
C -0.6082921227467903 1.7911211109839809 0.233202239271817
C 1.1374295605571783 0.10070380897097776 0.6964335211162501
O 1.1028849405308094 0.48377713782489423 1.844712298762625
C 2.1214852930113843 -0.940398049426508 0.3153835546792121
H -2.503633490953795 -1.4051873450717165 -0.5554794634136546
H -2.0483657680730816 -0.19513939114451892 0.6641579426520604
H -1.177126237087346 -1.8223669004210437 0.6294746141416689
H -0.028676291724071414 -1.175724270439758 -1.3991216532871908
H 0.7943489555701634 1.0970020455720433 -1.1887130432469821
H -0.6401395638252275 1.6619814792479235 1.3347779181087915
H -0.12453610537405436 2.787355887908075 0.045721715269854156
H -1.6221857379111526 1.8289509110844766 -0.2114993790937912
H 1.8739482781770387 -1.353569642729785 -0.6855457059991767
H 2.0832853825745206 -1.8245768962703348 1.0126688820275167
H 3.1463015827727907 -0.5143540579771054 0.27369713157757525
