18

C 1.8498402801082574 0.4241181056842184 1.007061849623391
C 1.2428809370846539 -0.18807930575809373 -0.2497017065145832
C -0.12461669494295281 -0.70897486237218 0.01092276563786388
C -0.35243005522337045 -1.9998718175719254 -0.18702955169032776
C -1.2364012801098299 0.14217477494796898 0.4784212357728404
C -1.5629627390457232 1.26138156939835 -0.4791673586866083
H 1.23746709387326 1.304719478120414 1.342082536419314
H 2.874595451089481 0.7540149114574306 0.7280232387769777
H 1.9045414466509727 -0.31454799723455723 1.8110204238718546
H 1.913077977768767 -1.020450762678747 -0.5341059555971945
H 1.2745724913992054 0.5645027836055345 -1.0446446568734782
H 0.45072830220349874 -2.672087210653706 -0.5361673924145939
H -1.326403516668933 -2.402420345178206 -0.007733409857911229
H -0.9486027024997709 0.6209217729484245 1.4395132260328194
H -2.122651089222994 -0.4631130299591257 0.6763351974197258
H -0.9287452572154535 2.15586193767693 -0.3194782631128725
H -2.6077991197774955 1.5915116872878754 -0.22442888446322026
H -1.5370915254716047 0.9503383102793913 -1.5322069089992643
