21

C -2.0302330469863223 -1.7948565544618922 0.1514931478345912
C -1.3122852585157287 -0.6050035439697734 -0.37844992861779986
C -0.024229814150750383 -0.23650253099152804 0.30553042991859325
C 1.233168316423635 -0.664493807999938 -0.3723834107907192
O 2.308417910032359 -0.2324770141208757 0.4111262589434595
O 3.4425143140791614 -0.5927892442740222 -0.15509450391036733
C -0.49506342603453213 1.109293480800164 -0.22476938759712414
O -1.8018770059006175 0.6409856441663359 0.04721581172831314
C -0.06919226248797347 2.302188895860581 0.5402246798419149
H -3.1259615819441993 -1.6821038812841496 0.05415868289831063
H -1.7137009093956466 -2.0818538652893044 1.1826573057472205
H -1.7655800056517856 -2.6652294801194163 -0.5157070437636643
H -1.1942023250634457 -0.595193515288701 -1.4686038891803297
H -0.033659461754900505 -0.22267554496892536 1.4035095238111266
H 1.2717425758715362 -1.7486092503201118 -0.5646872411262381
H 1.3487635657703998 -0.15878496471680809 -1.3620600257427895
H 4.055230663959566 0.1787873662768787 -0.2981295061801899
H -0.36097267737444166 1.142656152080828 -1.3143810752782248
H -0.6171033683252902 2.496004627692256 1.4599847162649386
H -0.15481275106623593 3.1951759357425367 -0.14657057333732973
H 1.0390365485151427 2.2154810951858863 0.723511434646817
