21

C -2.0162815933565885 -0.9514819090095783 0.5143921682786416
C -0.5787278960008593 -1.3448838611793668 0.20974438282364086
C -0.16578692134400771 -0.25527947681575247 -0.7495014312642575
C -1.3990146645010328 0.5676103195395497 -0.8728960148432219
O -2.414305434868094 -0.4014256070965532 -0.703069922348546
C 1.0342971323511725 0.5014401074269896 -0.2622736063926452
O 2.110501389222049 -0.3718130662506689 -0.11216320397922762
O 3.1159631045173697 -0.07338539699137908 -0.9005144642480379
C 0.8073829264487662 1.2250361377238914 1.0272141039382858
H -2.636340743741343 -1.804946443001203 0.8206243249321693
H -1.9674947264768354 -0.1346231537083698 1.2484889659568057
H -0.5607782065975178 -2.3268067351321453 -0.3232640503025261
H -0.011040647817531026 -1.3572962782569304 1.1395154934547473
H 0.0637068889265747 -0.6885280852760269 -1.740448830138768
H -1.5474323885032548 1.2893361831462955 -0.046116353073528835
H -1.557678137966377 1.0013128740150397 -1.8750050416305508
H 1.3329990046558142 1.2380076641674964 -1.035942802989739
H 3.995917518144613 -0.2964377076876237 -0.4941748728988642
H 0.5648474720980471 0.47281807532494813 1.8333629716251008
H 1.7630405373676752 1.6859065353324116 1.3514318312482427
H 0.06622538744131527 2.025439823728952 0.970596351852299
