21

C -2.006261245904628 -0.9802165530080398 0.03067188909046812
C -1.2837208161021942 -0.018205053061319504 0.8111660181291379
O -2.5041774336254754 0.43243973405182634 0.09147385997734506
C -0.0959560207148945 0.7165780741451917 0.29778886267440363
C -0.3617708381284921 1.557137127784015 -0.9247237404905477
C 1.1376918655677788 -0.1525115539373579 0.14667405089545066
O 1.4441671699496998 -0.660721622253948 1.3959821486636266
O 2.60307244906849 -0.17833519479203333 1.7706820204102964
C 0.9279738646851807 -1.2995608793425344 -0.8140800218571985
H -2.800939233967936 -1.584312918274392 0.5426302436706095
H -1.7751064830750574 -1.2792344110415195 -0.9893563935175788
H -1.5169362198282657 0.04432863256983585 1.9039127228371766
H 0.1935027589881758 1.4606529482758221 1.1020847073238367
H 0.12951935436421008 1.097204979649533 -1.7967222210033253
H -1.471969842659632 1.5526811795319237 -1.0834065315087553
H -0.010869924329908126 2.609655627015568 -0.821359948655294
H 1.9488554569520795 0.5081647977369357 -0.17574885252601732
H 2.629117014916535 0.8141281138764153 1.6553808316031442
H 1.9652351450008154 -1.6365220374433231 -1.1095398246995902
H 0.3732137250509815 -2.093532128206865 -0.3046925095749068
H 0.47535925379259303 -0.9098188632757513 -1.7288173114423109
