23

C 1.8699500516597398 0.18818589046267273 -0.5083345602249867
O 3.107193598362074 -0.34213899139060083 -0.18690783621182752
O 4.0398040437884335 -0.08825460695617668 -1.0421146712688543
C 0.9067430099411289 -0.2020899984553301 0.5896526137954275
O 0.7995981442820651 -1.574553197810664 0.7103428009082748
O 1.1472112396493717 -2.022246000388401 1.8954897678946339
C -0.4737080349377795 0.3539999030195225 0.37372798616163083
C -1.32923849559913 -0.11286998888285746 1.5418727896287838
C -1.1194181234160083 -0.20094865326375883 -0.8839336812943962
C -2.504026076745672 0.44274710761372854 -0.9790743501957404
H 1.9831310082901548 1.2958407672009882 -0.49595948969595577
H 1.515370778880249 -0.1246883366438836 -1.5029315816589635
H 4.034957067771037 0.8579634151809528 -1.3292964535628453
H 1.2726105991066723 0.20235989187805908 1.555354124119748
H -0.43643487475174136 1.4602431501639705 0.3530942427243934
H -1.1807329878665307 -1.2168085334995766 1.6417309937989661
H -2.3803188404761944 0.16510387293798517 1.445379664124588
H -0.8503741576088477 0.3257564814019719 2.4567647146988794
H -1.273817215773444 -1.2923086722367827 -0.8028442844934202
H -0.5522419263752453 0.01824444809316926 -1.7939159060396193
H -2.641439260877046 0.8887600450811564 -1.998571280993577
H -2.6244690839313476 1.2680881911747215 -0.25326439452611477
H -3.310350463371955 -0.29038618468082034 -0.7862612076890452
