23

C 2.6296768651721156 -0.660430771058794 -0.9144946557069689
C 1.2663343990611646 -0.11023392868203724 -0.9035945886711788
C 0.5585028086324436 -0.2514381262195457 0.42437795417165736
C 1.310688795836866 0.46496172768700134 1.532568111416802
C -0.789985128416953 0.37420542129450896 0.30475369030624055
O -0.631595105747996 1.7089400091137756 -0.018414955742279915
O -1.0893875188402091 2.483903797432684 0.9193410602885689
C -1.6956749699587208 -0.3010281730660325 -0.676637266780446
O -1.8580214728591427 -1.6459185962272638 -0.3548728948734923
O -2.638345119913287 -2.2662939467256904 -1.1847168551747378
H 3.4030685195369093 -0.08401658299758574 -1.4080728917392642
H 2.9323364284450126 -1.282734048174436 -0.07784503367480956
H 0.6417663701006067 -0.6414361360368539 -1.6535886497352201
H 1.3219054898413396 0.9901951612846127 -1.1110619445784673
H 0.48787672649743874 -1.3419578627213118 0.6916825109124719
H 2.239851064156987 0.9397116506105591 1.180143394050536
H 1.5013872852915664 -0.23907367302836033 2.3884792518544256
H 0.6971155513870673 1.2889993114102833 1.9810709607017265
H -1.2788688850020151 0.31414228472705946 1.3054616893892153
H -1.7050784272077106 3.1531661475486916 0.528114382123885
H -1.3821611719020803 -0.23647624190799732 -1.716130569648105
H -2.69150647906393 0.20672893238465312 -0.6047358428108826
H -3.2298860250473775 -2.863916356647938 -0.6318268560796623
