21

C -1.72793565602296 0.9892087108423647 -0.6507509684058104
C -1.3639443404425395 0.5028460770766204 0.7523072962884981
C -0.4967660694432848 -0.4145388923946606 -0.036412521567529194
C -1.2614748309358703 -1.661881434433019 -0.4771307141886522
O -0.4679613813332867 0.4998528332415505 -1.0575371543310081
C 0.804193737768413 -0.8155833820373609 0.5727803963228928
C 1.72623444723704 0.3305668057428374 0.8685107557097237
O 2.002355471123896 0.9836503993516625 -0.31867588028073524
O 2.807457868613138 2.0099783951203745 -0.1655583991419536
H -2.5660132216313976 0.427126823846477 -1.1172264349923609
H -1.8256720373325588 2.0895483928186636 -0.7274937165272635
H -2.2044316955448036 0.03761751044802913 1.3032192602322272
H -0.8882625311096272 1.2841717948342264 1.3419825637616023
H -2.3427205078550233 -1.506088742521229 -0.5006840066555424
H -0.8139862519756477 -1.9769751776090245 -1.4317665099953734
H -1.0485186469489967 -2.484306567593746 0.2665531222346186
H 1.3312078990194245 -1.473729345973668 -0.16133207588980966
H 0.5963618465782291 -1.438143533052705 1.4628966904404404
H 1.3362908814826813 1.0064424267861616 1.657497648332861
H 2.652499619331303 -0.12994256904440024 1.3169952423403337
H 3.7510853994218976 1.7401794745508052 -0.003995322251616566
