23

C -2.7138163497984156 0.4693221404789049 -0.02760440697197312
C -1.3588923649831641 1.0625005261775533 -0.15847445041794977
C -0.23769947886026044 0.07027975521384248 0.1320401984193573
C -0.395083907770603 -1.0518186512832355 -0.876119838684635
O -0.3319653880246787 -0.4730631682713024 1.3851967659596949
O 0.6120484477120617 -1.334171863885618 1.6591766189959074
C 1.021944949501461 0.837467297313987 -0.04945452659193356
C 2.297366945453155 0.12572442973312384 0.16766043278642762
O 2.3802406457766567 -0.9576887905958705 -0.7266401170388637
O 3.5292411933902756 -1.548061683638358 -0.48570996844469744
H -3.1209684937035145 0.27770299535217585 -1.0565329222424549
H -3.4513138403553727 1.1970743627677656 0.4222394551250084
H -2.7037540213746243 -0.46269972368682405 0.5524821675248913
H -1.2977742211360341 1.9480491379602864 0.5148823329531844
H -1.1937674733271495 1.447607158678255 -1.1882546727899617
H -1.4771166025993188 -1.366207260786844 -0.8055341517202553
H 0.24594749921672188 -1.9092850292484198 -0.6839528703267465
H -0.2894933708600406 -0.6381000901161107 -1.9094122503491904
H 0.8435718851131891 -1.3471100401148508 2.632865737281036
H 0.9562576122926577 1.7379435431295525 0.6202072720371119
H 0.9959339024891164 1.278630550202526 -1.0858364802861415
H 3.1399027102394594 0.8077467099698384 -0.16173966900619338
H 2.5491897216084807 -0.17184230535041115 1.175283705534482
