23

C 1.463923914747322 -0.2327588306702248 1.5560473151529077
C 1.2325458290288283 -0.08774265849551652 0.06882772574696949
O 1.2978390256334251 1.2352411017674492 -0.2483524758175722
O 2.3161731384777395 1.4469947377926105 -1.044492545048954
C -0.047570364462866006 -0.764066596320255 -0.345389885628522
C -0.30341233808144513 -0.6381575042857762 -1.8085763567580104
C -1.2314814335451625 -0.341492245906432 0.462705236771311
O -2.3439113475305398 -1.032146126710264 -0.014314293512755974
O -2.888210809381653 -1.7891790041883222 0.9152853701433558
C -1.5339814418020343 1.1190289073557966 0.40036240716763577
H 0.6783388752769435 0.2832717107250448 2.1075433694038432
H 2.4775183874699964 0.1965877322134735 1.7581641802164272
H 1.5127118381699232 -1.301518585067769 1.8680314177197122
H 2.0575167890435746 -0.6295296456959727 -0.43104350815671033
H 2.3413407512190494 2.4196277108680637 -1.2609467152162532
H 0.10469532287892966 -1.8595492877176711 -0.13367285411009053
H 0.6577455674227772 -0.6418495993456874 -2.3919257565970655
H -0.8266165264156634 0.2937751283034982 -2.0457093312839443
H -0.8639714085980092 -1.545383655369268 -2.1704263287993943
H -1.0978662702946753 -0.6242558937027202 1.535125793319953
H -0.7742409627655814 1.7594562196214483 0.8948918675291926
H -2.4801863246080376 1.2865981965457585 0.9668190059740832
H -1.7489002118827737 1.4470481882827122 -0.6389536382160022
