20

C -2.2180661745011125 -1.4514595099060092 0.19459191765584655
C -0.7563098462886748 -1.4085629272088802 0.16271232687699774
C -0.011753868196680992 -0.37793703568582615 -0.19042838428742853
C 1.467731380105291 -0.4841297362234569 -0.17284121835058838
O 2.06551216649971 0.43298610555776024 0.6817503395257408
O 3.3690749303840932 0.25937719765450645 0.6266760108666772
C -0.5891341177816043 0.9020860708628019 -0.609848456542804
C -0.1748074016034456 2.0641286896957554 0.2623697458785807
H -2.7467757113062707 -0.777346122605921 -0.46324940305352114
H -2.5730965344915155 -2.4893160853071428 -0.07854294516890008
H -2.5953015596989872 -1.277138622859779 1.2328152434925155
H -0.25486315790950576 -2.3480229112764026 0.47147038604892194
H 1.79439371184231 -1.5194142119231158 0.13366704947518743
H 1.825363277501222 -0.37274639539982324 -1.2174789714939487
H 3.6303641365608077 -0.41550587917380466 -0.07117544207660698
H -0.20793373639850396 1.1417689012959442 -1.6472514194947612
H -1.677503244903236 0.9350380314550869 -0.6880778602356863
H -0.8291211237839098 2.924772188878953 -0.04088321876236833
H 0.86135490870375 2.3889073007911352 0.08677386504547001
H -0.37912803473395196 1.8725149513782835 1.3269504346006737
