23

C -1.2981631542684708 -1.5883320663883265 -0.2896356492523943
C -1.0076214937975136 -0.3159733834385263 -1.0493196645246585
C -0.39664144028877224 0.6676560663680239 -0.07328834299326237
C -1.421793079143665 0.8857771270488557 1.0110222752825717
O -0.2672635255231744 1.888058960305399 -0.7606022787014051
O -1.4916842772194108 2.2369671407497735 -1.1280140238680645
C 0.8893884067575715 0.1356547395055964 0.4111625906825955
C 1.9249776053711132 -0.11355407398381313 -0.614022647633166
O 3.1207610392529186 -0.6026058296711964 -0.09031187014754365
O 3.9978860520299766 -0.8031515457828029 -1.048843306141874
H -0.345184410260935 -2.046387125306734 0.035071829718810725
H -1.7658176292555992 -2.3013199436276954 -1.024379160315596
H -1.982729037465513 -1.3437449120061038 0.5356750658181381
H -2.009220670434348 0.06383371862517867 -1.400765689557115
H -0.3576040893394712 -0.5504958296299428 -1.9046807309591307
H -2.420020107526264 0.8677442574021833 0.525287260387761
H -1.3061157858023364 0.11017533572581796 1.7965300500355355
H -1.2185838017253712 1.8987483578123496 1.4579206705096308
H -1.709387238972935 3.159780723817981 -0.9074190531409351
H 0.8722030501508949 -0.5007900418203802 1.2811742049245745
H 2.1246611653904055 0.7701731685647794 -1.2191511911623443
H 1.5409073301436702 -0.9134433201480383 -1.314547227212142
H 4.527045091927175 -1.604771524122425 -0.794105823731054
