21

C -2.681598876472232 0.4238274878208628 0.3018583381477453
C -1.2306506988545005 0.7839621234574244 0.1583783351938299
C -0.21601866533904318 -0.20938030854302223 -0.21806069030010936
C -0.5994282358846167 -1.6673619704495557 0.03415097163929798
O -0.8299238055229083 0.46083770176472244 -1.2528914941788303
C 1.2300039014441384 0.17149636928486886 -0.012769043277226302
O 1.3912867873989443 1.509977174886503 0.27252087484664866
O 1.9712570027522212 1.6982893540824175 1.449214282492438
C 2.031399852612416 -0.2107708150824693 -1.2637448646851888
H -2.97552947379955 -0.44600792077708307 -0.3100757328856204
H -3.2724853154049 1.2933233858288082 -0.0926220527187241
H -2.99412193535569 0.2925375831624888 1.348657318555916
H -0.9565365720533618 1.8036987621502725 0.42552118988865445
H -1.581261031571347 -1.7490625565547737 0.545103521366816
H 0.16464816414838973 -2.1988622463978866 0.6048850888799188
H -0.7415437044959321 -2.119021074761093 -0.9744124605749871
H 1.6336234883093341 -0.42360147630562983 0.8298099138679677
H 2.961312417149589 1.5788171482165159 1.2990087071914411
H 1.7386270976351352 0.4195839219796849 -2.12383855109445
H 1.8438846595285705 -1.2860552173403477 -1.4576280802189021
H 3.1130549437754795 -0.12622742642261742 -1.0231051844708805
