23

C -1.2916562107783622 -1.771322155997157 -0.7094808807126647
C -1.0153818193418156 -0.5616928539135547 0.12767925848984413
O -1.5250234007087642 -0.8172766420714638 1.4091811415007647
O -2.4570954415136343 0.04914213955067421 1.7345360449019263
C 0.4623270214947196 -0.3083142054833566 0.302628698256026
C 1.1752211966768136 -0.08567862474692561 -0.9939773350751404
O 2.524919057579466 0.13566021262916556 -0.6942799787700109
O 3.222151053765671 0.33843159555510693 -1.766790534581895
C 0.69523148455583 0.8632408902788853 1.1997196418707083
C 0.09988048576734698 2.1377914270848173 0.6911275940831473
H -2.0161153962934106 -2.4807487327961453 -0.2111475105591508
H -1.787697111090227 -1.4623561072843418 -1.6581001754672395
H -0.3518200175761237 -2.300935731251303 -0.9238761551935643
H -1.5556479272640653 0.3256616117813935 -0.26579018158671336
H -3.1797317118780164 -0.47159034601362837 2.2119848984007966
H 0.8894126125810314 -1.212905252405447 0.781021033507818
H 1.1618267954731165 -1.005256203876115 -1.6388406094752306
H 0.7853385007538478 0.7571263490186382 -1.573501369663319
H 3.9728194671938764 -0.2863936070100807 -1.892720848155118
H 0.33800482938955156 0.6835936341299761 2.2175842822929415
H -0.21847494494244143 2.078717779226151 -0.3814690140400657
H 0.8642253691194896 2.937355747074873 0.7295199544566933
H -0.7927138929638222 2.4577490765198498 1.3049920455194952
