21

C 1.7507164774569337 0.5079279908429737 0.22337213205375447
O 2.0628118547241265 -0.713960818125853 -0.3398158408768345
O 3.005778582854392 -0.651769033954706 -1.220790438460364
C 0.6502538560765163 0.4074073250134968 1.2457668330257012
C -0.596502372343246 -0.13843231828897187 0.5819757913396236
C -0.35424178739974094 -1.4900426163577853 0.004759727551399672
C -1.1361104563392643 0.8180671828911129 -0.465816740268231
C -2.3794538431672936 0.14499646061860694 -1.0440794873210597
H 2.639962067201933 0.9597905827905253 0.7252100702673604
H 1.4978685288552496 1.207178746929706 -0.5996616583116823
H 3.894973997223233 -0.6567833383643478 -0.7917634275470035
H 0.4495897758407651 1.3660992470022648 1.7432570324562666
H 0.9721218686082929 -0.3797411389642096 1.9731007189665688
H -1.350611393331066 -0.24391183597266275 1.4088883111155737
H -0.985252181698334 -2.2883601857814844 0.4357445161192425
H -0.32168222919188305 -1.5121714688537717 -1.0989642900533325
H -1.3906529171037112 1.7971863767630651 -0.03903319249339794
H -0.39587750004712746 0.926443168026114 -1.2810802400830448
H -2.883074968335687 -0.393432930053916 -0.1975570099330548
H -2.0264719529258626 -0.5583678889147586 -1.8151426926508891
H -3.104145406958209 0.8918764927546219 -1.4230448445033397
