21

C -1.4711932180645406 1.6803642475389249 -0.1716941543037975
C -1.2370262264260048 0.351784932899437 0.4968397026576188
C -0.6782468036436761 -0.7197690358797605 -0.37979591665209234
C -1.4243131940333564 -2.0201379677711446 -0.16693922897550864
C 0.5831574461964206 -0.5669321349326649 0.4349397900287584
O -0.1282028750492482 0.2586598411331673 1.2964488272005008
C 1.6876557375364474 0.2071221918336686 -0.27553483370521475
O 2.540911814552917 0.7135839347524401 0.6839577284778204
O 3.5284659187198213 1.3960429122766906 0.1931801506040986
H -1.8191350552757821 1.4760460906439532 -1.2107426061294086
H -2.317897833520589 2.2416954704389163 0.3146248105950714
H -0.6037785325811621 2.354505594348924 -0.14104744170219594
H -2.149492731476733 0.07450026551414853 1.0812285134260942
H -0.4874982986095168 -0.4570072788330537 -1.4372806776622593
H -2.5063048345917354 -1.7331157733600249 -0.05597016389062866
H -1.2831340907058348 -2.7017527771789545 -1.0206441922278096
H -1.0404445561047213 -2.4525331060153293 0.7955271295050031
H 0.9266506927830656 -1.5207496717141353 0.8308572982158986
H 2.2671695397525364 -0.4991455452618365 -0.9277327818223104
H 1.247104230898184 1.0204647051390303 -0.8899994906886399
H 4.365552869643558 0.8963731044276375 0.28466347340504716
