19

C -2.091486435619543 0.7347356015219729 0.30441064197853646
C -0.6081342476793006 0.848586437305918 0.5975747343921075
C -0.06667054457434898 -0.12882486773153565 -0.430193339187793
C -1.1428460130675446 -1.1923876530968636 -0.3212515698985026
O -2.3011887279589702 -0.4643407801527846 -0.32517224584814614
C 1.2731556980263141 -0.6847028711463694 -0.03848032320358725
C 2.3253855144431546 0.35951690114550244 0.12429592011917742
H -2.687694472165056 0.7334410335002163 1.245413990232891
H -2.4332333562549935 1.546118713208002 -0.3916309302212339
H -0.2205573705446033 1.8667287975798097 0.4584121400668065
H -0.4448827353071601 0.42500826037452044 1.5962005061856837
H -0.1050830367386518 0.2812600920798954 -1.447303901103423
H -1.118731381034394 -1.8941497255798982 -1.1778834617135587
H -0.954712361643564 -1.7210722055046788 0.6433937750777674
H 1.559672003391457 -1.4194919324742492 -0.8196520716742309
H 1.1228943996705611 -1.2145228203212806 0.9431507939524306
H 2.8199754179002383 0.5718389670320292 -0.8618811902747505
H 1.93433669544015 1.3233644799570163 0.5066661633975655
H 3.1398009537162057 0.028893572302852742 0.8018241813174154
