21

C -1.2893857670803932 -1.9699483768878698 -0.008036364694988257
C -1.0072766506660515 -0.6270817243516194 0.5707029753410691
C -0.09183712852650691 0.13648658312502973 -0.3350111505997835
C 1.225098894190794 -0.5456966267629121 -0.5481882609608278
O 1.9004690201241003 -0.7144288403433025 0.6615010702866134
O 3.043337771595138 -1.3019753923666029 0.5081276127164218
C 0.09517765115768155 1.5776340152554296 0.1441567097174006
C -1.3175519440630574 2.1785177463902374 0.13029995413934664
H -0.9252877384942914 -2.0718834462816402 -1.0587589671101079
H -2.408279615294032 -2.076504870596265 -0.08809301530832239
H -0.8798701720368675 -2.8174862650326036 0.5739257336458977
H -0.7241705958537038 -0.6108441366887238 1.6199200660594744
H -0.5842622050178226 0.22803886806999094 -1.3355398841772326
H 1.0349155539492927 -1.5004349484567983 -1.0679856860718255
H 1.8651186531021988 0.1043531830574693 -1.1753168008521628
H 3.755630761977208 -0.6041802252855292 0.587808587672434
H 0.7245877858080911 2.073616143946179 -0.6237531309788209
H 0.5274779001089759 1.6136256380590708 1.1501141155406582
H -1.3832776707783627 3.002371374590217 0.8672805827375178
H -2.062323917552259 1.408981778668355 0.44733342477689825
H -1.4982905866502008 2.516839521891905 -0.9110701546911716
