21

C 2.054955462892704 -0.6038987256878524 -0.4872329850120889
C 1.32256115698404 0.14123951915490837 0.5845812691341363
C -0.14236588713392573 0.3663380454312401 0.1875876018748757
C -0.8660522196239339 1.1163803467306317 1.2743350953251937
O -0.18839960123478647 1.0939622410198846 -0.9966170462511413
O 0.3954776438478973 2.2596877274116762 -0.8576065434748467
C -0.714547741220894 -1.00569325048511 -0.031529399512276575
C -2.1728436367732606 -0.9678233514709759 -0.43490448741872006
H 3.153211697837434 -0.4872853728526703 -0.27347938906074787
H 1.8147143469920266 -1.6837005542717194 -0.4848530267571646
H 1.8323783314458775 -0.13798503348170194 -1.4684250215892032
H 1.3402331434718318 -0.4826066362593295 1.5036992064142805
H 1.808120698061034 1.095024419019142 0.8201319939820058
H -0.23254776575560918 1.9982113122800709 1.5724463158871853
H -0.9831281102439419 0.4318911712774303 2.164013547914077
H -0.2177221917665319 2.932762312640846 -1.2527775031035588
H -0.16590881336497437 -1.4422922813910979 -0.910915351677335
H -0.5154203245530802 -1.6805639195578963 0.8138852535246522
H -2.4690268998861464 -2.010297493459515 -0.6757831711680046
H -2.825859858481437 -0.5323265888409665 0.3358360895733965
H -2.227829431494252 -0.4010238872069784 -1.382392448604739
