21

C -1.5755115519564762 -1.2447490814866267 -0.665305774971288
C -1.1330666097799516 0.09209177476193359 -0.0910998458599517
O -1.0762194709098216 1.039013372024008 -1.0830733579517766
O -1.7703551690972008 2.0910031042099617 -0.6639811434071081
C 0.13685680462768288 -0.5696164332414068 0.31397178633342204
C 0.40995681427745057 -0.6268003309541379 1.8045703841753813
O -0.4478223385906172 -1.7984080933701836 -0.07298880324905399
C 1.3413179630142094 -0.3135081119340911 -0.5430414593676739
C 1.740791495830644 1.1134643653718432 -0.6402187866189685
H -2.542348457144711 -1.535361245496601 -0.252826249313519
H -1.480181557044877 -1.3024748109359683 -1.774033368649358
H -1.7207750910740163 0.38525114030543095 0.8178041739644752
H -2.4435485057197766 1.808155316831302 0.02821961621169222
H -0.3720961453319595 -0.0680703395044802 2.3699215748311357
H 0.3804720476156816 -1.6640855091999158 2.1974296005662644
H 1.4210037229213826 -0.18665073691135903 1.9621722133419979
H 1.2047505843600608 -0.792813831666743 -1.545743985625522
H 2.1901770163146974 -0.8922030741582023 -0.076249872967458
H 1.034393680628208 1.8410248731924053 -0.25648169321503694
H 1.9849638967797611 1.3250277161098867 -1.7219562578156686
H 2.7172408702795936 1.2997099360529631 -0.10708875041201278
