21

C -0.9702744251449412 -1.1400602829571658 -0.8366838920052526
C -1.0288884577280195 0.2205308885544659 -0.2380319825924445
O -2.229036032258917 0.3944905722710386 0.44698562429668715
O -2.9365901281947244 1.358418153926491 -0.07990447182313161
C 0.15907116517543163 0.5694971562705061 0.62780078392667
C 0.32179929152155806 -0.3755750490962306 1.7944354766268282
C 1.4061452544807351 0.7491604929248629 -0.1513204150558181
O 1.9692117301126653 1.8315734400112278 -0.11871418556834278
C 2.0214353571624954 -0.3069469170264205 -0.974718842847867
H -1.9345131615019409 -1.674317624048978 -0.6258348309646815
H -0.12556329095454358 -1.7575996335745832 -0.4705126172145767
H -0.8908475600499745 -1.06585630425379 -1.937262364949571
H -1.0266408039186166 0.9866418515273445 -1.067764899982715
H -2.399221540492958 2.1685719913902237 -0.22639723870772283
H -0.12122453399776034 1.5565179609469004 1.1037786784898747
H 1.1821242161413026 0.013419984819553157 2.3892638930968197
H 0.4646058211586906 -1.4236736613383691 1.4909385217573106
H -0.5722637218596742 -0.22724225299070286 2.4476709319905483
H 2.211629850409125 -1.2524612470788883 -0.38513503404656396
H 1.4568698302910301 -0.6049188887706406 -1.8569448140861595
H 3.0421711396494446 -0.02017063150682696 -1.3316483203398457
