17

C 2.482056865931685 0.5578688447212954 -0.36912190341643303
C 1.4050334238332298 -0.48844043018576067 -0.40605044873988205
C 0.11153281370603059 0.04804018865595856 0.10381929947340446
C 0.0720941974866896 1.312782331481006 0.5051528028288377
C -1.0443781127491607 -0.8597917417235135 0.13073104720492043
C -2.2906612098014496 -0.20841283353858508 0.6636629505054712
H 2.474411018200039 1.233243927951643 -1.243560825141258
H 3.4903188430424428 0.12361694366103773 -0.19837364453463566
H 1.7677414262594187 -1.3408182698154216 0.22322314552319636
H 1.2913969086981099 -0.9182958111516749 -1.4325648497755772
H -0.8354766029870084 1.7740761453415257 0.8891408718554454
H 0.9462088571759243 1.94896605932707 0.469200801521082
H -1.2670661255202849 -1.1882911864320271 -0.9093246438029321
H -0.7672480014767035 -1.773588072971485 0.6885982776564885
H -2.5953341400764094 0.5867425887145391 -0.045598444637202064
H -2.160632807246131 0.19171945105429086 1.689026344998617
H -3.079997354476453 -0.9994181350899369 0.6907981023001462
