20

C 1.366020341703343 -1.5040983089638655 0.6598797003891326
C 0.9662902208724488 -0.05979326296462941 0.8892333217810181
C 0.4345286100615646 0.5038687570416339 -0.39789792359629145
C 0.02559289893208355 1.96113850052933 -0.1875069832833355
C -0.665079062910247 -0.30939025836543615 -0.9968704285761328
C -1.8689935754679705 -0.45416624045818504 -0.11886492036754769
H 0.4242142288214466 -2.0715460595549415 0.5071394541670274
H 1.932566851224551 -1.9059903592576148 1.528169186608109
H 1.9499963018233009 -1.5232062850344081 -0.28225189184202476
H 1.8375090813063348 0.5500677390995659 1.2008063976481895
H 0.2500877333551164 -0.04892703592473791 1.7110916437698211
H 1.2664321416602602 0.5387650686716312 -1.1327108456929535
H 0.9982246112223425 2.52637795086116 -0.09160865684598189
H -0.47041978339287677 2.364534773481014 -1.0768372224780605
H -0.5113923820880052 2.1127406305876333 0.751751681661378
H -0.28161576513711073 -1.297450293289225 -1.2437161512563681
H -0.9836220995829362 0.1765248671744953 -1.9326024159005055
H -1.6636946136617305 -0.9401457964506463 0.8519729482893942
H -2.582478339304135 -1.1291224522172523 -0.6473141533277033
H -2.4241673994379003 0.5098180650345802 0.008137258852790685
