20

C 2.416426767203358 0.531708807602824 -0.13213264799411165
C 1.1177521382112372 0.49944821275634205 0.6281987622117696
O 1.223358785928464 -0.4529031787121889 1.6392012755843626
C -0.07767771381216632 0.25382591506012375 -0.2556692971978222
C -0.023428471379966537 -1.039723393292447 -0.9939450085391135
C -1.3279638588880063 0.4664041133845947 0.5381379406646145
C -2.581485096322598 0.24587122187964708 -0.25294503763501924
H 3.27481433570292 0.28426341313567316 0.5082243182729071
H 2.585855884796004 1.5174385514310331 -0.6157882447297437
H 2.3806889910961586 -0.23000520435993949 -0.9364925700802689
H 0.9456540463477415 1.4746998079814726 1.136929465871672
H 1.4985733267487378 -1.3397303864726189 1.308015261948509
H 0.905282433798703 -1.6302463893746983 -0.7801431182997002
H -0.868332501255698 -1.7222884071476088 -0.7630586968619187
H 0.020133339379476103 -0.847131777725558 -2.1039933944139815
H -1.3303674115303188 1.5271393686142534 0.8795845726058489
H -1.324282208906705 -0.16239016252882102 1.445147563336167
H -2.9934507661038836 1.2081895578872204 -0.6666835922796147
H -2.4722741597828195 -0.498964263057706 -1.0669305366479773
H -3.36927786123062 -0.0856058070615875 0.48434298418346616
