22

C 2.240033445355429 -0.8535098476419392 -0.26943493521101974
C 1.1291311764285834 0.16283312342794906 -0.4171254345100953
O 1.5729271054956504 1.3430350278058105 0.16892074865655574
O 1.6797147332170472 2.320508666241618 -0.7046781400503999
C -0.15459745407805606 -0.3115729917260492 0.2645314164300776
C -0.6383087136463831 -1.6063572270958106 -0.33205357106502176
C -1.1923661371091256 0.7456686052728657 -0.024575185783167527
C -2.52916200129497 0.4526444145633628 0.5679417136515472
H 2.1297807213951914 -1.661684717306673 -1.0244923725454098
H 3.1947824773907225 -0.2869012585998393 -0.4792485718127159
H 2.3231863630314606 -1.2593920402495402 0.753410367883946
H 0.9564795792463172 0.2949018334670431 -1.5116418362551942
H 2.349334353270178 2.995047915263369 -0.4315170509095633
H 0.05991756120541657 -0.4308420809132561 1.3305473376323778
H -1.3739250450553733 -2.070553567285095 0.3405009532755688
H -1.1534604873780425 -1.4059968165447858 -1.2994699848731306
H 0.1930652898581725 -2.348906077141209 -0.44655076853821024
H -1.2644474386194375 0.8033754670014494 -1.1487480818582865
H -0.8668812779960854 1.762772688191719 0.2890214113706936
H -2.6240013748185573 1.0541535042301644 1.5109236862521735
H -3.299192478832682 0.9083988842851572 -0.12110038777960054
H -2.7320103970654777 -0.6076235052463159 0.7610271795367215
