23

C -2.5080665108568674 -0.2432661563960351 -0.46968214700125965
C -1.1492003899155885 0.41897668780302993 -0.5246794866039484
O -1.1312727054505605 1.550695034043518 0.31881240303503056
O -0.9003957376114 2.6528275821633676 -0.39440539775793987
C -0.1526227073601258 -0.5647254478265051 -0.007227362488213989
C -0.4806775695856788 -0.9349539137258915 1.394716580728891
C 1.2695720015431824 -0.1328989148369314 -0.1696367225190413
O 1.6238854620724035 0.05808599194852126 -1.4864454900901558
O 2.1162392191276007 1.2613790743738242 -1.6525967070224674
C 2.1570963136121875 -1.221559363008172 0.3920767694616672
H -3.163024151257898 0.0804112525485434 -1.3033656721843256
H -2.360411384842236 -1.339556743470366 -0.5432306471747003
H -3.011849791799275 -0.07615382609292663 0.5259209711813888
H -0.9670984200967945 0.7232845741296198 -1.5752630989994794
H -1.3063302699994368 3.408830993673376 0.12602586714097141
H 0.28995008035972436 -0.4716671365206174 2.0582471672001152
H -1.481056146758709 -0.6194290779767252 1.7486176475046333
H -0.44531666938735814 -2.059350174453593 1.476232078308663
H 1.4932008031070296 0.7858861589455746 0.41535652935138356
H 3.088894263195328 1.2715106825495048 -1.7987280257813574
H 1.5851611814505502 -1.7672157451334456 1.1647703401533698
H 3.1239319270236603 -0.8250116459105333 0.7557110012990174
H 2.309391203430331 -1.9560998868271917 -0.451226597742393
