23

C -2.4088820861755114 -1.3515741811954334 -0.27989112472345173
C -0.8993928503952042 -1.2463610208610898 -0.45876047617268345
C -0.5510787000680354 0.1960955976952439 -0.7400800379300556
C -0.9716924401309308 1.0882296524673707 0.3818396046169479
O -0.37705161137481785 0.7740080789386489 1.590435690622145
O -0.8338888844809742 1.632349059579927 2.4815002641379804
C 0.8705584340950561 0.30334895786887944 -1.135292553166675
C 1.8667985627995132 -0.1633150957125211 -0.13986597095751868
O 3.14493295641577 0.0076968921520084175 -0.6702617447871614
O 4.087929275679278 -0.3809978334348695 0.14839901443689404
H -2.774258483726589 -0.7602309068680179 0.5738673921256223
H -2.8433512233415383 -0.9724184724287147 -1.2498440418203545
H -2.719631414156438 -2.4138405850580673 -0.18403051121680386
H -0.3545042636240728 -1.6571455743994876 0.4063808569827603
H -0.6353124423127648 -1.8721902949608848 -1.3359521523568485
H -1.16358167803507 0.4935974507891729 -1.6314932945349503
H -0.6274912073083236 2.130630354564659 0.12672031510519768
H -2.073028898702585 1.1498915599372062 0.42822356362969966
H -0.44251907074419705 2.5178228977111305 2.401460918230766
H 1.1583835288114583 1.2207936060058195 -1.642106799886681
H 1.7642259793363115 -1.2414598421260077 0.08930804737397495
H 1.8515120210408431 0.400586178812137 0.8184696215650306
H 4.931324496398969 0.14448352052281419 0.02097341872620199
