17

C 2.443264422985792 -0.4287604915396644 -0.42536879879811484
C 1.4359506327239364 0.08411339644116483 0.25485490496304913
C 0.044250446780996947 0.09164651878376581 -0.32205832939055
C -0.3740463016045861 1.5367662923342194 -0.4224504876896244
C -0.8160716927967668 -0.7004021545875058 0.6289689220897254
C -2.244652201161477 -0.7852399382171781 0.1886867709639058
H 2.240056951910067 -0.8488111350999133 -1.4207567094907905
H 3.4466485356268066 -0.4461356126630908 -0.035275014414914166
H 1.6389925884029553 0.49713905220054966 1.2350037170242334
H 0.01413533563035299 -0.3654104244406517 -1.3098020476897645
H 0.5330040939966827 2.0987961348879116 -0.7907857880442972
H -0.6151407952368558 1.9874968587923247 0.5628275534778225
H -1.2214374486060509 1.6813931615636113 -1.1429285555738469
H -0.39735888407171616 -1.6990745149489546 0.729289392713551
H -0.7985744486101308 -0.14578326422795232 1.610104090343623
H -2.8663415093450446 -0.8913510283466665 1.1049554566681863
H -2.462679726624905 -1.6663828509318863 -0.4452650771521766
