21

C 0.9463365400088568 1.2414063918241764 0.8069932373503564
C 1.0565590702704293 -0.11476241322287019 0.16146228576422733
O 1.7449337922061703 0.060260532189384056 -1.0377997704109516
O 2.8649236726725813 -0.6058930099505948 -0.9412507613759599
C -0.25176509990894474 -0.7838677141463387 -0.09052922658966395
C -1.0286000382347016 -1.0046144859290076 1.1887973379632804
C -1.112073561062175 -0.09617076599130536 -1.1206732903284453
C -1.4476522343089044 1.332302968571174 -0.7062645273675744
H 1.9710833740453002 1.463373747659548 1.2305609147463197
H 0.7929689879375436 2.037030089003937 0.03978455792259129
H 0.2591064945951251 1.2916025216213651 1.6497598383864447
H 1.6214008873171597 -0.7571786915762265 0.8703243123748121
H 3.014378142212044 -1.256715556937917 -1.6503954269531338
H -0.029200705857546732 -1.79698257620757 -0.4959379881967402
H -1.2573477837926963 -0.06921269481816746 1.6936153346153424
H -1.9470233607818244 -1.588882860208706 0.9531870130616025
H -0.4131114732518524 -1.6874384829661322 1.8372231502856804
H -0.651759099175854 -0.10028693872544626 -2.118160743135697
H -2.089433538473447 -0.6128018658194548 -1.2206519612339717
H -1.77392079349407 1.367527667440936 0.3440336798113439
H -2.2698032729234736 1.6813041381892266 -1.394077966689979
