19

C -2.08825151827317 -0.07558944878352802 -0.939171520004387
O -2.9412436747957837 -1.1906245490356628 -1.0776410599202484
C -0.8366590336621484 -0.5787073028067387 -0.29681047937741767
C 0.19835252383960436 0.4847303726549463 -0.06939996887641849
C -0.250293137771736 1.5999168516103655 0.8111496072993133
C 1.4306310682996126 -0.15337167313385866 0.46602233111222957
O 1.818301945831841 0.20881744003006836 1.5624683278026439
C 2.172772306130109 -1.2005102158390468 -0.3042658546561945
H -2.591005443646856 0.6285871488785267 -0.2419244125393059
H -1.9268773497622174 0.4346056122955389 -1.8992297338780657
H -0.3840099177319258 -1.414891610192754 -0.8447972059807335
H -1.126523053875494 -0.9829669693281265 0.7107158186722243
H 0.4680633091375957 0.905247191846654 -1.0610060045164027
H 0.6729494702400931 2.150333562125425 1.1467654582465
H -0.9059096049581639 2.3109331078648983 0.25253712046890314
H -0.7863122757769602 1.1845110185081051 1.709095955220898
H 2.993086223205782 -1.5666302303651864 0.31234993338715605
H 2.5492820033208736 -0.6876473052514955 -1.22017940574877
H 1.5336461602489542 -2.056743001078178 -0.5758818567491975
