23

C -1.9691363005629976 -1.2701621008460586 -0.30104658520556
C -0.5313992430773193 -1.0120681166087884 -0.7621495118878204
C 0.04347286374561501 0.03366912575283902 0.15878095573355033
C -0.7995831892254223 1.2746822474189543 0.043157471649167584
O -0.8131257466714608 1.7794626570274765 -1.2572013018185573
O -1.5454429793235627 2.8465983585355117 -1.3235665846763534
O -0.012292900047708095 -0.3831156714026122 1.4871751396964046
O 0.50457921198796 0.5785420902225233 2.2195471034159553
C 1.464586019725156 0.3845425029745438 -0.16235356851334468
C 2.401181607908264 -0.7908270114653017 -0.07159311392510198
H -2.0419749630867874 -1.326576401304765 0.7966080692068087
H -2.659083820409142 -0.4779934689708062 -0.6774675665343006
H -2.324003868515551 -2.2257690421371144 -0.7286754071113666
H -0.6207602084668153 -0.63813871114302 -1.8011306155264801
H 0.008331079924975308 -1.9558373879764355 -0.7676440739243595
H -0.37609670828182823 2.103794215685877 0.6789127052519022
H -1.8496483010225682 1.1292605344635966 0.3474709257242284
H -0.1782191280215117 1.0985213853662212 2.700956039246461
H 1.5599519691575625 0.9154186395581424 -1.1463431248658724
H 1.803142266010651 1.1158471692229202 0.6034748519629006
H 3.4126969110362837 -0.40053986330953806 0.16478159759070463
H 2.4779683725309485 -1.3698602139172464 -1.0002948978813277
H 2.0448570546852376 -1.409450937146848 0.798601492392331
