19

C 1.6854333159396158 0.8228885832084533 0.32630920884603565
C 1.329847185343098 -0.26805562903758345 -0.6134375916263967
C -0.028426600366768875 -0.8602750685150747 -0.4470578709052361
C -0.25625376622084106 -1.4696504391896552 0.920429713671884
C -1.140718502392806 0.032511489653193004 -0.8927770495005335
C -1.2352090240214952 1.3341302297593383 -0.1852135840534025
H 1.0033891681874363 0.9744056831721707 1.1677462950377693
H 1.918896925644286 1.776475946429845 -0.22896391440993336
H 2.677710592428412 0.5479320032345306 0.7926082145779787
H 2.089441187022199 -1.0406498069160515 -0.7008528786124264
H -0.053615868728446946 -1.7503947895433856 -1.1498734027590116
H 0.724331639014368 -1.8829689739567632 1.2674221311029705
H -0.9517744616152812 -2.3343734971402474 0.8916321216123037
H -0.6271854784349246 -0.7500742141598641 1.6564274522859948
H -0.9828501164645064 0.24301708537647648 -1.9741781455676852
H -2.1258570821207945 -0.47321604957296737 -0.8279798356804029
H -2.203187737937581 1.813115448320676 -0.524141790437132
H -0.4561516896533216 2.059378291862731 -0.3971435430968336
H -1.36781968562258 1.2258037070142747 0.9190444695141038
