19

C -2.3547881507208235 0.8187707013251982 -0.17329597319400136
C -1.3292863639440615 -0.2715326501003039 -0.1667826868492192
C 0.024426797676422286 0.059302134425014155 0.3449896746194622
C -0.1015100587491743 -1.3632992374238981 0.8453123049608187
O -1.4893476939126291 -1.13279245340232 0.9426427994691378
C 1.1166706263999324 0.16017555056300944 -0.6970469226399145
C 2.4470241741229484 0.4991617228208912 -0.07267097724864024
H -1.9269852146775823 1.8366575102698903 -0.15303702372264505
H -2.971690544453892 0.7186379095092049 -1.093420758633828
H -3.086375282968321 0.7298861625224038 0.6832930022951168
H -1.2519880176604274 -0.8276319447209253 -1.1350802149184396
H 0.09554892845745395 0.7601013952661573 1.1883779667507106
H 0.3954457809596632 -1.5886206534668126 1.789781365585217
H 0.043398408852517126 -2.1360370374642508 0.0405261969284195
H 1.2152663098442664 -0.8301712930422408 -1.1845221708867326
H 0.8204734100823523 0.8683788981577161 -1.4977347077279968
H 2.3229236342095185 0.3932727761878425 1.0275930329555754
H 2.78237872390238 1.5229574270766775 -0.2962124815660199
H 3.2484145325795657 -0.21721691850332286 -0.39271242617712915
