22

C -1.4236982200930985 -1.1818516234956096 0.5857246459832218
C -0.8316286907650626 0.19621770151951212 0.7764901770704042
O -1.900504560490945 1.1167224933670026 0.7284585985666865
C 0.16998000703897045 0.5267414659237817 -0.2942620403469967
C 0.5098352022821241 2.031607301223517 -0.19624418118520565
O -0.4892475441517268 0.41873122755929926 -1.5195506597648452
O -1.4906132249117592 1.2958245476245611 -1.4798753387708483
C 1.4471646794826292 -0.19941613432509486 -0.25207891703016777
C 1.4309033311188206 -1.675117477076597 -0.3648119075908669
H -2.5301364335174688 -1.111168683826373 0.6369000182026507
H -1.0890976451154388 -1.5841913176059734 -0.3837602470681011
H -1.1351877602828913 -1.865280147903463 1.4191951605054467
H -0.4353182329217225 0.2420894311978088 1.7900776162248278
H -2.765956917922253 0.6786748263611215 0.6156786207560301
H -0.4307499076211665 2.615734222201253 -0.055571027843688135
H 1.089459947626354 2.333068771624789 -1.0720443802799762
H 1.1247668979052832 2.1946970789278777 0.7107587391171458
H 2.080502473655009 0.18006057199278624 -1.1065183321833756
H 2.069267625864611 0.057215904415849186 0.6531712368701544
H 1.0382381807730598 -2.2177789819074976 0.5191570709063152
H 1.042326092929594 -2.0529084639611774 -1.3344354376824814
H 2.5196946991169704 -1.9996727138372254 -0.3764594144564065
