23

C 2.1004130016217197 0.36656039774270094 0.39578996361435875
C 1.2221188652616708 0.84773885896477 -0.7189840812135379
C 0.036150013207521016 -0.07094667497744242 -0.9523407402472833
C 0.4845139016978534 -1.467231364747559 -1.3132478307640523
C -0.7938048580852846 -0.19599537274404186 0.3134795339538911
O -1.8849377755919559 -1.0314536922227722 0.12685839591398548
O -1.839420845211249 -2.07913723301459 0.9316260949320085
C -1.34050067255646 1.1416183394573556 0.7704837551923224
O -2.033360788584837 0.8682683891051386 1.974054410770298
O -2.511455395081761 2.0108042361623193 2.3816924305427367
H 3.1651347665163834 0.6734046584890993 0.26556239004509075
H 1.7619219548068545 0.858393648289129 1.3318862935712041
H 2.0227166699179993 -0.7532050461285811 0.4783320466051761
H 0.8637612295505233 1.8674903118197768 -0.47445961011655835
H 1.855211053698664 0.9325250233798577 -1.6238195628587353
H -0.6128040581997822 0.38633401787303895 -1.7172775791453514
H 1.5078236516294707 -1.498061824212541 -1.7226906580821995
H -0.18684535424399012 -1.841931550163781 -2.117125639360982
H 0.4810373242045436 -2.11953720177191 -0.4148382942382655
H -0.15336444823965742 -0.6270052138174058 1.1016247977915983
H -1.5351992030996582 -1.7083973154543048 1.8187907144706887
H -2.0495990988893222 1.557046685917286 0.05414913591201872
H -0.5595099343292298 1.882717922054317 0.9804791672360749
