21

C -2.111665693072895 -0.5830679820949104 0.8630878490485762
C -0.6466412696596406 -0.7645523920301217 0.578380951375422
C -0.09649909846695698 0.33089765831683554 -0.2813329330760242
C 0.08709780895642368 0.03448572492034757 -1.7139035312110045
O -0.8092669827654431 1.5238124930072143 -0.10134161250727138
O -0.31388477705310003 2.475845640506521 -0.8631311019307216
C 1.0209958586883128 0.21756951162204552 0.6609281160401064
O 0.11075502055083483 -0.25131143198913164 1.6396090826826275
C 2.081006480062058 -0.7930513831631759 0.44101164646130137
H -2.562247500637054 -1.5785592688463328 1.0397157866629678
H -2.646935896480913 -0.07851989190335386 0.025802406504054513
H -2.2920318919440206 0.010488072843673217 1.7956214800744412
H -0.34065272039694766 -1.785300058277005 0.2508167317474175
H 0.73288165670624 -0.8001518027785934 -1.9669863725812515
H -0.9277995480516597 -0.20946125784670194 -2.1493101548050806
H 0.3858534316325594 0.9758574568606254 -2.235985027626692
H -0.3606882978689037 3.3199492223151394 -0.3132019394304701
H 1.434837111473748 1.1899632784279779 1.0580735562310486
H 3.0989087892419342 -0.33597685280875894 0.6197483845942898
H 2.1141883354033406 -1.2608860361699803 -0.5386514760065092
H 2.041789183682068 -1.6380307009123742 1.1910481577527607
