21

C 2.027078631199179 -0.19604030368039813 1.1195968427339482
C 0.9218548886517927 0.2608984560763977 0.1879673562035788
O 1.2101640969887149 -0.07548287118137183 -1.1288779986083743
O 1.4062091586850594 0.9754256794713559 -1.8937933442736055
C -0.41241014977168955 -0.302156971566731 0.5893060686297884
C -0.8001098275768098 0.12792755196430705 1.9890113781291605
C -1.5279852144814898 0.015576323301782104 -0.3280718403065856
C -1.4022611686218467 -0.4506497353416962 -1.72776339459594
H 2.2187636618203403 -1.279035231922289 1.0442566831394176
H 2.9631332571004876 0.31647040064046195 0.7881854359814185
H 1.7428958325972805 0.11182258890858876 2.134624818365184
H 0.9296073860558548 1.3858485414275958 0.2262209580764122
H 2.240719658131063 1.4280350066774739 -1.5562239712309294
H -0.28291723138647235 -1.412901858399228 0.6394426540384869
H -1.6661278364396361 0.8256347309486214 1.9544561828674232
H -1.097624633745149 -0.7305790849508375 2.6281650006535933
H -2.463300856695636 -0.42609004221123864 0.10134066438118322
H -1.7394413830159272 1.1257677401973918 -0.34205113502065115
H -2.377624343106754 -0.883221794578073 -2.102808590475032
H -1.231526676604165 0.42318463725108485 -2.423235738815876
H -0.6590972497842041 -1.2404337630332916 -1.8997480298726719
