21

C 1.350574256621066 -1.117485527992581 -0.6767950237886118
C 1.1327193924765435 0.3710773340613094 -0.5005770766873467
O 1.6382957418992152 0.7227728688815624 0.7462154702134008
O 2.4963398343866667 1.7109282711603273 0.685806254936302
C -0.37229162560344403 0.46369178760387225 -0.41343840760536077
C -0.8396417099518759 1.4910528292828094 0.5814380158674577
C -0.6685286905887958 -0.9518630421868921 0.09561339177652678
O 0.08564757747376105 -1.6959431754830665 -0.7719167575507678
C -2.1164619868778733 -1.2619380150894697 0.12049181971332751
H 1.862074435362283 -1.5852641466564326 0.17281500653115076
H 1.9228440168154504 -1.3017742852092369 -1.6333865583447282
H 1.5327447904825757 0.9738968277071525 -1.318780296683737
H 3.360879170497977 1.3401897266024905 0.36390545889760356
H -0.8186597302437887 0.6446285157440413 -1.4033752978642244
H -0.5915131085004317 2.4864091338756817 0.16241314967614465
H -1.9324613091896954 1.4268381054483665 0.6439168026032347
H -0.3361841726967159 1.3266793195568094 1.555767667540999
H -0.21429031250935657 -0.9901582771994675 1.1146001292620569
H -2.4562319889937183 -1.21517873901348 1.1945628896246046
H -2.3016873649647676 -2.285200021193545 -0.2149872353435479
H -2.7341672158950203 -0.553359489900366 -0.5042894027745137
