23

C -1.6633259390278652 -1.6206412246593254 0.48958923059141485
C -1.1720630262745018 -1.0775702922083585 -0.8138320265145892
C -0.0882846302898557 -0.04641694229082236 -0.6645073432878068
C -0.5845190767462195 1.134081855946286 0.14119030566222182
O -1.6772321513542385 1.6600168659432535 -0.5748458004948743
O -2.2052287731887334 2.694629093550125 0.016843132602402874
C 1.1821790002445978 -0.6418094473491802 -0.11892538610049129
C 2.2636863642239633 0.37954252482576034 0.03158190680648713
O 3.392470225854487 -0.30291174326042464 0.546097002596667
O 4.36883811425749 0.5604226195570464 0.6942565502871375
H -2.323752159933308 -0.905478577427193 1.0268941019801536
H -0.8716165311454102 -1.9613137891146757 1.1651057717396864
H -2.2875371325962077 -2.51998937843232 0.25890746602083553
H -2.0320761154086195 -0.5891572615924644 -1.3241145647918
H -0.8346207561145331 -1.8989774307326546 -1.474179694756664
H 0.13501885460148685 0.337416641599211 -1.6813471174844954
H 0.24741925919349606 1.8762537922129003 0.17455942633428215
H -0.8715044520977477 0.8543512936129278 1.1559706748918837
H -2.1439088539482922 2.581970101162785 0.981701618300177
H 1.5291326002071177 -1.3922053076687784 -0.8564377512267723
H 1.0303104860111578 -1.104298990289322 0.8829235806041453
H 2.020117861419128 1.128513926163962 0.8382109946690783
H 2.5864968321125166 0.8535716704512266 -0.8956420784290982
