20

C -2.140708380573929 0.0019801982183394098 -0.8886642387929754
C -0.7013016536787525 -0.4205758377005808 -0.8763536214403189
C 0.0275931701063209 0.2896293434144624 0.21097448224368864
C -0.5835501707623633 -0.03942838927085873 1.5531350182622234
O -1.9038956678225776 0.3463498369049226 1.593340895139549
C 1.4882067680716917 -0.07595738652443379 0.2814830442248747
C 2.226849605222062 0.24874640656563096 -0.992498502359965
H -2.3068476828936295 1.0528004499466084 -0.5836745034520938
H -2.812483547944363 -0.649558631165121 -0.2994040918139941
H -2.5314891100947636 -0.07903239177315725 -1.9423575116609815
H -0.22952748603942685 -0.27403762581077 -1.8804309504696073
H -0.6964064563457179 -1.537634943348829 -0.7365667043298227
H -0.08861833289406974 1.3851368346850592 0.0749384017880217
H -0.5505788354130333 -1.134345119961901 1.7168912823693525
H -0.06188207042847767 0.4875000891287411 2.3849387874789496
H 1.9311036967421755 0.5103844258514685 1.1259918514625016
H 1.582685731471853 -1.1384006907487443 0.5459410589306848
H 3.0894279412791645 0.9231101343827396 -0.7819005362745486
H 2.6670629014252074 -0.6844110177430407 -1.4024653117707593
H 1.5943595805726156 0.787744314949463 -1.727533928656289
