21

C 1.6868463372920444 0.8755212975356186 0.21728891630093453
O 2.3308551574377967 -0.36350839941614105 0.3354635820853635
O 3.5973156166545217 -0.27063778295333196 -0.019129002181583102
C 0.25749655700013124 0.7370324007545496 0.6239885311845036
C -0.4878701298606801 -0.2667479920464323 -0.2402062368574754
C 0.1429438548302007 -1.638162231654137 -0.1437899100029424
C -1.8640553337271606 -0.3691463789763217 0.31103508383522743
O -2.311256347316523 -1.4171652131866357 0.7225260419601666
C -2.7707373227118834 0.8307159659625002 0.3840084494975436
H 2.1851208049954765 1.5522282998648012 0.932625780087798
H 1.8152842418852546 1.287359693499795 -0.803866541803984
H 4.2224765280367995 -0.3484604375307265 0.7254475450781173
H 0.22092234153995788 0.3961141168466682 1.6705632965647201
H -0.26037072747463275 1.7131974873454978 0.587821793941674
H -0.5148993002386889 0.06258099610666047 -1.2938403201278301
H -0.6769647927839387 -2.3687568160797654 -0.38695119826718505
H 0.9449622175410927 -1.802631623972593 -0.8777569647968202
H 0.43032428871143574 -1.8557213830966843 0.9001426412845713
H -3.7762800030384582 0.47975038676230997 0.07021799624280543
H -2.7934227373081857 1.119805755488519 1.4518193848512342
H -2.3786912514646206 1.6466318587459214 -0.2644266256304128
