21

C -1.9649658474640543 -0.7899263837736247 0.3899899433827053
C -1.0898768611293244 -0.5090494226002269 -0.8363898924477249
C -0.09407431538892713 0.45089986997284504 -0.2842522311609501
C -0.4088984314600551 0.4772614411118247 1.1780133813851985
O -1.0218174130372535 -0.7628399867596877 1.4071810405749245
O -0.31510588247693566 1.7410968694745308 -0.7940497728799543
O 0.5848026558145286 2.56642589359087 -0.28422757380154823
C 1.3288717264608156 0.09207481386098537 -0.5932112221047325
C 1.7630442514796956 -1.228781551079959 -0.069656562080155
H -2.6598498538426485 0.09063576102852161 0.4986608637234608
H -2.512165299227187 -1.7285627979594838 0.3075413058242107
H -1.7171485455501814 -0.0649813368128004 -1.6538212233255447
H -0.6835573665428152 -1.4463824003724193 -1.2166903791690895
H 0.4359115256701842 0.6683171730231413 1.8338463861097507
H -1.1903509585363832 1.2470174579798592 1.3656938259538018
H 0.27314827922786056 3.004491095786943 0.5443571253053934
H 1.4163626544799595 0.06404697222555673 -1.7101122411686032
H 2.0195730670535217 0.890139327627374 -0.2637822891170692
H 1.451009104213151 -1.4472356744054884 0.9664581813379822
H 1.492503395427768 -2.0785091017507367 -0.7359238214720504
H 2.8925841148282925 -1.2361380201680006 -0.0496248448700241
