21

C 2.4241150547589103 0.16743071115566738 -0.4218703606901753
C 0.9909309246214771 -0.17744726240213682 -0.7160978031676861
O 2.0309998117084693 -1.1323417325097886 -0.7088866845151618
C 0.009917613115182288 -0.17907982165422542 0.3842600191645351
C -0.5306340749848629 -1.6294551679745934 0.49110771740421355
O 0.5912749082860426 0.10586521897544984 1.5982449149014286
O 1.119784920942702 1.302930792100712 1.6210475563285012
C -1.1659089875700106 0.7503901152814431 0.12662937073917208
C -1.896784856577084 0.31351065790845445 -1.1495319068672378
H 2.827221874428369 0.36668394243943375 0.5717576289353473
H 2.9386791881830954 0.7541567712971389 -1.2284402637398657
H 0.604890161869748 0.11488301799095577 -1.7379276906153713
H 0.3060984625273654 -2.1886194947437922 0.9732394750774908
H -0.65607582246963 -2.0417610768051966 -0.5097007422465063
H -1.4336049598957592 -1.5652688722812558 1.0948359852942386
H 0.9804485829098123 1.8475361799253762 0.8233726252339381
H -0.8804955026924328 1.8125666226983375 0.06123860189563728
H -1.905921962584299 0.6495165914939339 0.9468036102175298
H -2.849870343531841 0.9112079610638986 -1.1502018433130972
H -2.148374001885443 -0.759470089830203 -1.0481755919365443
H -1.3566909911598783 0.5767649358705523 -2.0535368903169693
