21

C -0.6485627454764704 -2.1717611512977357 -0.14713000693176176
C 0.17999701806438773 -1.2968892700975556 0.7591577556005698
C 0.07139229532559983 0.14520523541198796 0.5066387155503095
C -1.2602807165529912 0.7579346769481226 0.6312666336351013
O -1.1735259822675577 2.120213848876136 0.358725515118577
O -2.376970975136137 2.628966558355832 0.47944268457159805
C 0.9628487833402076 0.705724347106343 -0.5360767164744948
C 2.4095879338618276 0.4410888333277313 -0.11107389261280787
H -0.23760682555201107 -2.2170338558512572 -1.172355567737112
H -1.7021966999799027 -1.7826281450900983 -0.20535490517656532
H -0.6795692550589301 -3.1862781413965497 0.3139275830363106
H -0.13892410571931574 -1.5062391406913282 1.8173438972975586
H 1.2342263718878437 -1.6116503152101882 0.6784560311228033
H -2.0623142518765363 0.31637306296022 0.020292740357194326
H -1.6052449385593976 0.6719174700841741 1.702599010812808
H -2.8494877130167606 2.7246098262672516 -0.38169397737105004
H 0.7647895260030066 1.8019819874143044 -0.6131092574465782
H 0.8085999183870477 0.26311625211230977 -1.5533740743339135
H 2.911709202043626 -0.2701887461662957 -0.7724093411529596
H 2.93929111987755 1.4274561638287588 -0.05950083695932676
H 2.452242040404835 0.038080503107818214 0.9260270712506125
