23

C -2.889756059489608 0.5813690721218703 -0.5856292555379452
C -1.3941130392205459 0.8315350874510774 -0.5195052548742596
C -0.7733644144782255 -0.26701729187886747 0.26348926664119093
C -1.3715883161955325 -0.2706727988846337 1.6567021628041587
C 0.7026087360056701 -0.23169981762783642 0.39185327697057454
O 1.1088867976296943 -1.3258917343626135 1.1499965267613252
O 1.7162448930924599 -0.9385026326733481 2.227868186966721
C 1.4591634117312846 -0.26644844994338235 -0.8991902330811138
O 2.8323509887229825 -0.1956494951797137 -0.667184526441625
O 3.5307375269114467 -0.2227954142067934 -1.7679797183580641
H -3.33931499425369 0.9986773730733058 0.3440346741725914
H -3.3094428882445657 1.0670752470306069 -1.5033160782938058
H -3.036227636300607 -0.5140879507615241 -0.59361441888424
H -1.0248694186965472 0.768169568931756 -1.5833826932330086
H -1.2869544100597317 1.8319483632285196 -0.10129101717796216
H -1.082371762735008 -1.23544201982728 -0.20294156483430187
H -0.7472725057007827 -1.0019613720758092 2.246083888443174
H -1.2228050463387001 0.7040628024071696 2.150300346003556
H 1.0222197918144422 0.6771327503843344 0.9390279534094633
H 2.6908817238254774 -1.003494860329464 2.062962523382139
H 1.2967862523111446 -1.2120085185450589 -1.4697495967954801
H 1.2033086477840462 0.550668617585396 -1.594732822971335
H 3.914891721884825 0.6750334740822634 -1.943801625071769
