20

C 1.0495454465747729 -0.19478025521295647 1.428289495564899
C 1.2094799987290399 -0.39537012055546944 -0.06421589923284977
O 1.393770113571229 -1.736207912793222 -0.37265150319792856
C 0.08755686480797942 0.23459025829256605 -0.8312148528398126
C 0.08148726487703044 1.7067303890491285 -0.534779694905781
C -1.2343825424390473 -0.43219504705055767 -0.6307574179844564
C -1.704289143179145 -0.4378409771046739 0.7837662196806382
H 1.153653396579728 -1.1587841753672556 1.9824450102040139
H 1.8611471728977869 0.45959284232548775 1.842761284022665
H 2.148925125486696 0.12769635002279575 -0.37116393485888194
H 2.017510786518855 -1.819405890418448 -1.1530018329353244
H 0.34315426062228216 0.13140710677328454 -1.9210902525387397
H 0.8330571740460622 2.2189401115663014 -1.1927624208421623
H 0.45361847628502855 1.8848037676730778 0.5077088813861415
H -0.9211844230050723 2.158071206791092 -0.6326264500539699
H -1.981709868946472 0.09421697169516302 -1.2484215352032897
H -1.1728859175317128 -1.4615846500650322 -0.9935725503981768
H -1.1885831279983998 -1.2248586207692616 1.3457356345760674
H -2.7866680806143145 -0.7072992650124666 0.7803841967366222
H -1.6432029772823389 0.5522779101604312 1.275167622820358
