23

C 2.1925688447113796 -0.3030524455233093 -0.4702157870843664
O 3.4039738224603235 -0.2858203573920859 0.21256364662659916
O 4.387985354786253 -0.4299484620475111 -0.6279157767002057
C 1.0671020622909044 -0.1352581011261219 0.5188909939099444
C -0.29117831618446127 -0.1440665481510859 -0.15414517550341175
C -0.34503740579806175 0.9663553401243054 -1.118262091799959
C -1.3308130213627798 -0.19527926271441784 0.8976938441229989
C -2.746482838470964 -0.21157661387686014 0.4483157599305466
O -3.5589164382292013 -0.26050710009689976 1.5851208906178402
O -4.8185528422497415 -0.27469630085465907 1.1893160865521268
H 2.0839588440827845 -1.2613311837154448 -0.9943287314111692
H 2.1641554351560885 0.5590466483623311 -1.1545454874631793
H 5.016055030027074 0.3296528914119099 -0.5986504544718992
H 1.231295404019424 0.8192310071856204 1.0800313736385667
H 1.1656999499793612 -0.9496792056955331 1.2661363291483105
H -0.3247489290051657 -1.1124231490084262 -0.7367861713952775
H 0.3009101591876919 1.8168820807120887 -0.7869425167170581
H 0.09390521396621929 0.6525837797659507 -2.1089780317013385
H -1.3237542610820314 1.3828302761797784 -1.3452267444072876
H -1.1990885963972286 0.6631578136605834 1.6024805927074721
H -1.1571290483079246 -1.1047686250173434 1.5130199284027517
H -2.9341301304466185 -1.1804730183963323 -0.10001581911634887
H -3.0777782931333344 0.6591405362133841 -0.11755665788557633
