21

C 1.4868500876003192 0.969307804869727 -1.485879509191104
O 2.432116770521815 1.7391937960015889 -1.4748544540522353
C 1.3133147687989009 0.05649468326462789 -0.34566680958279633
O 2.3523017198153453 0.18487222404391893 0.5819109196111185
O 3.0372222141857748 -0.9352771375251772 0.6332542389133355
C -0.03274487848854174 0.26419482707258707 0.3103842614218309
C -0.21181632596071262 -0.6684564189201793 1.4924260670935998
C -1.1039866690735698 0.10592973373446629 -0.7096760008086775
C -2.5002699278071794 0.28067591023585475 -0.14144652301262006
H 0.8063147091239732 0.9632320670139405 -2.308771952904718
H 1.3853439513662578 -0.9808393565733818 -0.7680188793436283
H 2.513565414904556 -1.6936533996650485 0.9955108781340128
H -0.09547102477600498 1.2946665433824662 0.7271278706386529
H -0.40255973273992224 -1.6987762862341922 1.200500711212498
H 0.7026339308068407 -0.5791080640877385 2.1092492043671074
H -1.0428115235600932 -0.25909969628113677 2.1033792590698708
H -1.098547385458566 -0.88765164009434 -1.2011292621580432
H -0.9629304364777656 0.8583247678378101 -1.5280253181534156
H -2.91873460855973 -0.6922487575854456 0.18299909567604847
H -2.519083720951086 1.0597818063799198 0.6187086690273812
H -3.140707333270625 0.6184365931297281 -0.9919824659581652
