22

C -1.6447176953745462 0.6301339460597275 0.5788229677206571
O -0.9499387547123228 1.6149979735415816 1.2358877432983595
C -0.9726327290331829 -0.6738138020454957 0.3733531708884342
O -1.9510744421094832 -1.479005129474937 -0.2873873971059284
O -2.2692471376912082 -2.4222529025929758 0.563305626260599
C 0.2677082056562197 -0.7357689575484376 -0.42242065985737254
C 0.07085856531636398 -0.20624481763498984 -1.8542461967460222
C 1.564123743116309 -0.402023006199626 0.1732989572549784
C 1.8178429441514445 0.9444211508205563 0.7210943745236575
H -2.571826284369173 0.4690827428962487 1.2168218892489213
H -2.05629032797818 1.0741373932534803 -0.35434498869324493
H -1.1898862719434242 2.502068758784667 0.9144721385908476
H -0.815118503665452 -1.1268598943430221 1.3911932937406029
H 0.3966769332642011 -1.8725656513029738 -0.6729774471981538
H 0.9405775666890055 -0.5778625499322709 -2.4362512412000297
H -0.8217799690470367 -0.6915124051784289 -2.276968476056498
H 0.03745645176331853 0.8980153199981022 -1.8701684273518648
H 1.7874978938096777 -1.191431235628193 0.959218708681901
H 2.3527166274316547 -0.6220480438707833 -0.6053082961804654
H 1.5846173388862959 0.9828568908573059 1.807203040044525
H 2.9572675012863052 1.105694000867753 0.7230727804835897
H 1.4651683445531611 1.779980218672743 0.12232843965253908
