17

C 2.3053450487732046 -0.47331810432555865 0.21203340742247145
C 1.338281709950009 0.6471604277387881 0.26850549295051684
C 0.06125676751371978 0.4276470335446431 0.0605474738678117
C -0.8846843529320885 1.5603221847835462 0.12190093550045013
C -0.3948188295936092 -0.939925534807044 -0.2280580747826843
C -1.8913698207394363 -1.079117034300629 -0.25842025110134076
H 2.5763200308037124 -0.78489280136116 1.2414323241379681
H 3.1908912326435965 -0.11616296979262576 -0.35232307971344
H 1.9150326410189134 -1.34522564041633 -0.3464746803825651
H 1.7652017915722318 1.6264967990909764 0.4887468297686959
H -1.8027696475957764 1.4096712524935102 -0.4643972917600976
H -1.1338630837589236 1.7447502333393476 1.200911178731088
H -0.40748113992093804 2.486994584114815 -0.2852506358265682
H 0.07020947923398269 -1.7100378376095076 0.4443146923189821
H -2.1093304028915907 -2.1775654435400726 -0.31666430719421806
H -2.315093632092202 -0.6376482109632108 -1.1736677830528748
H -2.2831277919848088 -0.6391489379894427 0.6784283438524198
