21

C 2.5061070751596657 0.3523650940994192 0.367566746202906
C 1.4645257402498495 -0.41418867969757095 -0.3775448437195968
C 0.07243023248575721 -0.2497622527247071 0.25078648631668415
C -0.23343822056401164 1.2292974722470935 0.19790243925904533
O -1.479525544801101 1.5222650337637278 0.741252704386536
O -1.714542185055106 2.8052897469830707 0.6810744839685063
C -0.8642146452125984 -1.064822940676766 -0.5796238343402178
C -2.28893859265926 -1.014674291145407 -0.09652483540521355
H 2.2590900474976854 0.5679519251021936 1.4064145837982776
H 3.4360064233450442 -0.27573732420416613 0.3774465056999187
H 2.758629248426277 1.255089941312769 -0.23302969074158328
H 1.337432571470911 -0.06169445295201563 -1.4363188031639478
H 1.717599244041197 -1.4934543150746822 -0.4450604991725684
H 0.07959001335425377 -0.5749643910410156 1.3092960764040236
H 0.5209344436627644 1.8177431959132884 0.7572995590195886
H -0.1968007272961245 1.5610380841980505 -0.8426980077195979
H -0.5359138553444807 -2.1236115411780485 -0.5145385665834737
H -0.838977315865834 -0.6797236473374011 -1.6199462817803851
H -2.827852737604476 -0.11197773478713366 -0.3973764336445085
H -2.814994829423853 -1.8966472209105445 -0.5480386986635626
H -2.357146385866427 -1.1497817018902352 1.0016609098790785
