21

C -2.652986599302034 -0.14496014562369047 0.8916112277690335
C -1.9218367026441203 0.4027491609435737 -0.25568484920289847
O -2.972441459954577 -0.47227010068023695 -0.500740802419577
C -0.5068418919657891 -0.06682226274312333 -0.5821641349506499
C -0.04116352292291892 0.6756206228724277 -1.8002578348669178
C 0.33395374770979813 0.22315265206542956 0.6382147330561244
C 1.771564929615311 -0.192765613998414 0.4586459614191758
O 2.475920826370529 0.09814573316232579 1.6004176161504113
O 3.7321333097250666 -0.24003898043414826 1.507550473144041
H -2.3630156875279344 -1.0454247278178619 1.4323989137655329
H -3.41117994506234 0.4822639199499707 1.3953929151495634
H -2.157480258299015 1.4657463494688538 -0.51849168642124
H -0.4813111966606595 -1.1460461750077497 -0.8108923369840243
H 0.6429780803559267 0.10281858847420544 -2.4392096533815923
H 0.36303981632240134 1.6905445929263483 -1.5420367153559844
H -0.9539710711289288 0.888719969209069 -2.420398256482423
H -0.11706669708984326 -0.32677152312910823 1.4896921673454273
H 0.32029345655291286 1.296175905332599 0.9092779136687323
H 1.8245625589288925 -1.3004507517370314 0.29084786658585987
H 2.233409613691019 0.30900905630243886 -0.3966603902786682
H 3.881438693286366 -0.6774439961912586 0.6524868722899987
