20

C -2.2225008092760423 1.5224128191035264 -0.0836763784707495
C -0.8778064326823167 0.9055593397017113 -0.18717013163298502
C -0.5935848124258818 -0.33122873538852804 0.1766462651761849
C -1.7065974291839228 -1.1477076238742594 0.7249160310228263
C 0.7421190096979866 -0.9640036153387479 0.08075127477701914
C 1.781519571167741 -0.03508974390611329 -0.4894642181633345
O 2.988827654376631 -0.7200878206100546 -0.536669972708182
O 3.947903652864481 0.05913238577274636 -1.0362226042689318
H -2.3478029846409374 2.107295529586363 0.8539880456250767
H -2.357100302712953 2.1915787702342233 -0.9776511980954802
H -3.0444415643959966 0.7569438422709069 -0.18894861484947348
H -0.08291317629675746 1.5160728370271666 -0.5882817235162686
H -2.368950162871569 -0.48717605801974273 1.3024147448130057
H -2.2438737762171783 -1.575227863414898 -0.16506940402271317
H -1.34198059018846 -2.0180689326472767 1.3063559850575188
H 0.7271462997124751 -1.894527255259976 -0.5425572946500812
H 1.0554438021456236 -1.198066142688495 1.1334825503608799
H 1.8496797700547631 0.8832181533274983 0.11273229809175073
H 1.4682219920653892 0.23580208686925644 -1.5199939422048094
H 4.626690288806906 0.19316802725475193 -0.34344827089291863
