11

C 0.04989230398241397 1.3986966262032694 -0.26220286755100974
C -0.12852227731355567 0.12782395313699596 -0.042880572881551816
C 1.069752180650353 -0.6974674976236912 0.30089569895459295
C -1.45451402526646 -0.4732512397526069 -0.12937544436296475
O -1.5569448407811883 -1.7056622699034911 0.09412228377249914
H 1.001007741618711 1.8695069860938958 -0.20785345286909407
H -0.795417704090499 2.0183880522910624 -0.5119807881935463
H 1.668659050887534 -0.89883832842504 -0.6170190964714696
H 0.7869612300253047 -1.6862383164130808 0.703537602610857
H 1.657010979259993 -0.10091750563631374 1.05190940515744
H -2.297884638972616 0.14795954002899867 -0.3791527681657562
