15

C -0.5596864027632472 1.6989934440716914 -0.2707848784223138
C -0.5686697882220332 0.3750542761174912 -0.3583155627576531
C -1.8244192616279022 -0.3929005171440938 -0.5818235565643294
C 0.6978761198013869 -0.3979173561122091 -0.23380946266440494
O 0.9564699200723266 -1.143216746519046 -1.3831107667564384
O 1.7672433087840955 0.49707825025102337 -0.06534223799406769
O 2.3839193285713223 0.26240854917282463 1.0885072626444225
H -1.4670681419862786 2.28198465401822 -0.35812870753055076
H 0.36602565923291563 2.2122593272886997 -0.10944004186407977
H -1.793266031861431 -0.7644892371141823 -1.6206361805256924
H -2.6672291753752346 0.30676312499066083 -0.5076694950476387
H -1.974498249015349 -1.192220647889277 0.16845515143759304
H 0.6319986132806626 -1.0752152342967312 0.6317470721091151
H 1.515880886753468 -1.9429270809503512 -1.1485963813609477
H 2.5354232143553017 -0.7256548058847176 1.1995702735299052
