13

C -0.9656310706279365 -1.0718235204169972 -0.057890520666602795
C 0.08831751484097405 -0.003987805886688569 0.23565524139234953
C -0.3744558246742465 1.27802122714676 -0.4274839090002323
O 1.2995139034675507 -0.44183673407257235 -0.24000006903992033
O 2.1930994400103776 -0.6415314190798764 0.7027704888291815
H -0.6466630836402878 -2.0556073636511583 0.32075976208777557
H -1.9003782267414728 -0.710555341656194 0.432374760404155
H -1.1105720468210993 -1.1834344215177535 -1.1534590400587392
H 0.1250329863200098 0.08894505049676366 1.3338981762584554
H -0.6467779638633535 1.080248206441338 -1.4775709491711089
H -1.3301482165314198 1.561592158988683 0.08518521668006031
H 0.3171701974141036 2.109067430304414 -0.28492406228481354
H 2.9514923908467936 -0.009097467096753785 0.5306849045694366
