12

C -0.6877502447945809 -1.0886464595866465 -0.199287294560762
C -0.176414704052028 0.3381536778385439 -0.2179395839311287
C 1.2686495623056881 0.29900926911472664 0.2812033739392633
O -0.9643247128737508 1.1019645346751055 0.6340936004524252
O -1.5374697181134607 2.115005125266658 0.03138403191396949
H -1.399821986800159 -1.2666639204505719 0.6285470216548058
H 0.1557887484069638 -1.8245427122996327 -0.049520816114796286
H -1.2471364735175863 -1.307044005630002 -1.1364266947783226
H -0.1666614749128144 0.7101453720428458 -1.248279410196847
H 1.2217776052457148 0.5422715905493356 1.3620994072136092
H 1.7074234228992173 -0.7119419168706514 0.14825919944758822
H 1.825939976206798 1.092289445350295 -0.2341328350398085
