11

C -0.30453908590266254 1.4007602474239604 0.09611136245308398
C -0.002344887630485028 0.1313801730736847 0.21626217236367543
C 1.3125275538636834 -0.44081704477846895 -0.1171275186382833
O -0.967347089994778 -0.7517102134117732 0.68627729386099
O -2.151191789099673 -0.8557063851130211 0.031085861394984142
H -1.2821489820127705 1.7682157608388485 0.35401442504487224
H 0.39648562471993165 2.1531526740953204 -0.26455113592759244
H 1.2448539896774304 -1.2209035849983927 -0.9272260077872166
H 2.0211595778839078 0.34881288979045943 -0.44494797466470964
H 1.7928559427659756 -0.9405799261672988 0.7665666190549814
H -2.060310854270566 -1.5926045907533246 -0.6357039807462693
