10

C 1.1073651846499903 -0.4256631379223561 0.3843314660103774
C 0.07766415414269362 0.25305775005318626 -0.06628462233260676
C -1.2352985930632143 -0.41551499580966744 -0.15123104666375442
C 0.2791331629555644 1.6410485669703725 -0.46351938220938843
O 1.4119163543298523 2.173297114216981 -0.3759892916199583
H 0.9421438968226057 -1.4632933223333233 0.6779869551846747
H 2.0855593000868335 0.03659235066065899 0.45906252934909086
H -1.2350528126530975 -1.0316596196166223 -1.0658138135121502
H -1.3909431051847228 -1.0912554234367233 0.7323932437705226
H -2.042487542086516 0.32339071721749557 -0.13093603797679756
