11

C 0.13393186854824304 1.3402788587371042 0.09364719003835
C 0.30302178043458405 -0.1312772138692118 0.027164917826023597
C -0.9333488844110439 -0.9563695253364003 -0.0689184296878478
C 1.4604965945288721 -0.6734426864253915 0.0510898313808842
O 2.6274935280131593 -1.0680795084537131 0.03248453737099462
H -0.4496995412641742 1.6262121089167707 -0.8189446014615883
H -0.5238215145492165 1.5689559045750145 0.9506252453107541
H 1.0901109182845024 1.8809657312106198 0.1151444335281228
H -1.0623150213672772 -1.6290376930697699 0.8015251395238471
H -0.8143918241799473 -1.6101172481107346 -0.9526499557027758
H -1.8314779040377058 -0.3480887281742833 -0.23116830812676362
