12

C -0.4781585179139584 1.0191854874690558 0.9255569170118325
C 0.16063787993305773 -0.18503514548220654 0.29624192554719364
C -0.8861815540727178 -0.8480523192078782 -0.5853775852547318
C 1.3341596429496616 0.2800243490481695 -0.4909338412904678
O 2.4739396296538514 -0.06658714442770475 -0.29945141890228233
H -0.9324578205798221 0.8414500796620655 1.8990956409901865
H 0.08875262347081461 1.9427424743008437 0.8159981163117969
H 0.5525204227359721 -0.8983021075005168 1.0703810436588461
H -0.5317825515959154 -0.8539592886527511 -1.617180144723273
H -1.04944045274116 -1.8775846317150189 -0.19860320447349408
H -1.8658261477074858 -0.3359873616583815 -0.52328537862698
H 1.133836845867704 0.9821056081642879 -1.2924420702486428
