10

C -1.2587941833022778 0.1409703599336097 0.018077875874528783
C 0.09886762133262576 0.2572760952780673 0.6561397544773713
C 1.2202677328582432 -0.09874639431580749 -0.26114061065426547
H -1.9748338839384223 -0.4577781531724718 0.6100342535098664
H -1.1076031669171278 -0.4116074211904578 -0.9458860351939634
H -1.6142982834300388 1.1795986779062309 -0.1744036594636222
H 0.16815002501298054 -0.1313752899261397 1.6628272302191403
H 1.9458032249195498 0.751501126737176 -0.2602031251377788
H 0.8222906282882196 -0.16842735705036538 -1.2859894009285688
H 1.7001502851762444 -1.0614116441998462 -0.019456282702707415
