14

C -1.8587057667418647 -0.6927277097647161 -0.22478694476666491
C -0.6845290063163343 -0.12110182885335143 -0.05291655380250042
C -0.5814779229410978 1.3212922050052536 0.2604046888527354
C 0.535907963653594 -0.8844313974483842 -0.16506464388991532
C 1.8991579395006701 -0.328972811922725 0.0113039806991233
O 0.44734503061569697 -2.1057414828880536 -0.4304207963485284
H -1.9735672151572914 -1.7434375104819684 -0.45470312475578134
H -2.7886708279388257 -0.13339675625407174 -0.144102563219908
H -0.08257679608019455 1.9019804293582254 -0.5353752884906764
H -0.007656618752648133 1.4789872255634047 1.2009374305111904
H -1.5894466964902427 1.7678388481847973 0.4476935402062966
H 1.8771137824822586 0.7330040076232025 -0.3730870583509408
H 2.208706251510875 -0.318973265256734 1.080793593449448
H 2.5983998826554235 -0.8743199528648992 -0.6206762600938669
