12

C 1.3547505815448466 -0.045808454390195645 -0.05772615458714922
C -0.09490878583142039 0.03705015883357392 -0.46727893871662746
C -1.0308417232831337 -0.6363124415438461 0.4664017397956347
C -0.5111082543753013 1.4446056398632496 -0.7396618084299956
O -0.7415363294099989 2.2636840142555172 0.109444874881684
H 1.8468556140201655 -0.9806538461157512 -0.3578577051631243
H 1.8739994233650517 0.8023628972893135 -0.5742212759114871
H 1.4082499489550404 0.06834472789628739 1.02941009974608
H -0.15714383207400867 -0.4871628287107031 -1.463545353062247
H -1.9666804075420854 -0.023977914209415467 0.515945458174948
H -0.6278148383163038 -0.8147976290795859 1.4689181700556584
H -1.3538213970528483 -1.6273343240884404 0.07017089321662637
