14

C 1.257317648783056 -0.7399814206523494 -0.7847177474169056
C 0.2819286332432932 -0.003068016588746724 0.10866882083466942
C 0.06649806896369465 1.4242943390522294 -0.3650992486522889
C -1.0182136972919889 -0.7361312946368267 0.15806886051673527
O 0.870687184781802 0.09457834286825177 1.3784042864193728
H 1.6560273645212338 -1.5895259952914245 -0.1633601498263459
H 0.7153760128680258 -1.207597940415073 -1.6499990951511827
H -0.3573741508772254 1.4816758483002042 -1.374658489139878
H -0.6257062980385746 1.8872306416661304 0.38407000638421784
H 1.013801694370318 2.0001427334758306 -0.28739172879513014
H -1.8992929029855332 -0.07680008488007146 -0.049126543870631645
H -1.0280433729567613 -1.5211069253993106 -0.6319300123717017
H -1.154397678306803 -1.1826118202396558 1.1764755871272181
H 0.22139149292547192 0.16890159274081218 2.100595453941854
