15

C 0.21801808770641928 1.8224226545185502 0.5463642167909639
C 0.07644224353629103 0.6712035721230031 -0.38177035577917245
C 1.3597060229119196 -0.04493442233961618 -0.6995325387960122
C -0.8628344806046846 -0.3671819409320836 0.2399732131651668
O -0.9752259476189044 -1.4197703470115193 -0.6392887799788024
O -1.7473246462869878 -2.369228106580486 -0.22358913306923967
H 1.0868305957891307 1.7682224187819173 1.221802325711632
H 0.22932497251770428 2.7677028057882382 -0.0339505385216353
H -0.6815645940247002 1.8819271781860885 1.2023093278305972
H 1.6119310389839092 -0.8149362312137014 0.08567000949376279
H 2.2294405408677256 0.5968360383735433 -0.7977729056029482
H 1.1761824232038645 -0.6421606001991828 -1.6229244179019555
H -0.5200813089236533 -0.69530470351048 1.228777353424435
H -1.8755469231309632 0.07884610971838646 0.3557962806828297
H -1.3252980249271646 -3.233644425702641 -0.48186405744967203
