14

C 1.2665545886886342 -0.8733845489577412 0.8899523154303454
C 0.5049734661333306 -0.09358491107769111 0.13234629771364592
C 0.8613099721160812 0.02288973076904728 -1.3042889869247638
C -0.667164172438337 0.6253835764092702 0.7184769647879559
C -1.9464052434468597 0.22956125285714804 0.0926042355028803
O -2.447485063495705 0.9301490764390022 -0.7468775101456564
H 0.9847934264511208 -0.9427547022718173 1.9482920754066948
H 2.1000025624302747 -1.3933072547585441 0.4632414066196444
H 1.3207519742832114 -0.9475586873995658 -1.6478550329592583
H 0.014721551504242151 0.26859460895540305 -1.9503317372063973
H 1.7167460382620598 0.7551609775408955 -1.3965083497978215
H -0.5685987040037358 1.7237704234109785 0.6174147230036106
H -0.714242809159177 0.37711315961656744 1.7936927731225585
H -2.425957587313945 -0.6820327015715822 0.3898408254803701
