13

C 0.3121407739172142 1.4899771074188553 0.15892982529731767
C 0.021621493246912767 0.031928621764642715 0.35564886289040915
C 1.0367508652222075 -0.8692146014470712 -0.28782350153224084
C -1.381726119536115 -0.2140012185928449 -0.10927854232497164
H 0.999057495305963 1.7285186600125548 -0.6364943082091489
H 0.33327400558528925 2.0898782797338393 1.0527628285421213
H 0.08587057111921749 -0.15894098201607118 1.4659091034170273
H 1.2182535121069296 -1.7816183862973252 0.3431734209024396
H 2.013810459954332 -0.3304120594617775 -0.3537135459887116
H 0.7665641966193378 -1.227531604897293 -1.2790660693501348
H -2.1097300094838167 -0.32320257121074797 0.7347400059107297
H -1.5027033244320458 -1.0920115442713398 -0.7452340850129745
H -1.7931839196254316 0.6566302992645826 -0.6995539945418561
