12

C -0.28514447161270273 1.3268805281389522 0.5805335178953994
C -0.02491146990118073 0.15490547896863927 0.06285774293064492
C -1.1118186785586872 -0.8595885236622598 0.003048492273150134
C 1.320404054039828 -0.18270081631071616 -0.4620987209354447
H -1.2557672165871556 1.5515265954105273 0.9522386612970606
H 0.48405417065037487 2.0652611163738106 0.6305056158634856
H -2.0892568322459235 -0.408013312469853 -0.2690940962703181
H -1.2281808524740896 -1.3190954833648165 1.0178279824101815
H -0.8573965801442995 -1.5950421094564575 -0.7748287562875417
H 2.077477140381976 0.09708259132569558 0.32086447290587794
H 1.557876953395304 0.42786201734067564 -1.3561744132129219
H 1.4126637830566133 -1.2590780822941916 -0.7056804988694738
