14

C -1.3514773081359477 -0.5249827887795799 -0.29585549218605295
C -0.0698207814438269 -0.16492498301886932 0.38034391829662495
C 0.16342840543730827 1.3510318178487792 0.3568863932701749
C 1.1414198632880916 -0.7951391507667056 -0.2669755547984687
O 2.29873633680832 -0.41848674259106583 0.4120117353829557
H -1.9307597189729029 0.3870959914611108 -0.6083802983403278
H -2.006067234324507 -1.1231591722682217 0.4044256875944432
H -1.196957919075163 -1.0994348641129854 -1.2394289421920983
H -0.10512317688870719 -0.4595587390749986 1.4492328528265206
H 1.1782032996407301 1.507462280578838 0.7743519839539137
H 0.123396371706083 1.7388319133341579 -0.6865747256093319
H -0.5691746240973432 1.8548070677021153 1.011363346057274
H 1.068742846964976 -1.8794400591036888 -0.3831336516984927
H 1.2554536390928799 -0.3741025712088935 -1.3082672525571264
