13

C -1.618172504319142 0.8507399980133417 -0.051311640282549774
C -0.6840050014089958 -0.04429504563194282 -0.286872526053733
C -0.9755288406500613 -1.5079177577459442 -0.3901089688355399
C 0.7161079171859739 0.3872016488057483 -0.4601442618554368
O 1.472706706701645 -0.24570546330813925 0.5409268754255545
O 2.722671636840691 0.13964020308498684 0.3850801465884591
H -2.637065608076633 0.5381646495519662 0.0749197772296718
H -1.369944982924101 1.8900501573099076 0.015579166268595821
H -2.0469949734177875 -1.6501996204224356 -0.10457695616870882
H -0.3604371387032998 -2.1057381074367854 0.3213907349728769
H 1.0647943326463025 0.06223228233151568 -1.4583479937557522
H 0.8445064761823189 1.4711296022671283 -0.37423602663781713
H 2.871361979943098 0.2146974531806485 -0.6069290890802398
