13

C -1.1655719095255073 -0.8856976395154726 -0.04916256635524418
C 0.05102739590659587 -0.025947766038720576 -0.19110727807440236
C 1.3561641054349447 -0.4395965105839924 0.43003935286939304
C -0.20061913649837518 1.4562587892647652 -0.2883064645318432
O 0.20085192245711314 0.7216554735277814 -1.3807603383628047
H -1.5182439281335098 -1.1501729424474172 -1.0858676215992116
H -1.0199855220908056 -1.7911870298710835 0.5397751352552587
H -2.013660115589551 -0.28219133589373874 0.3769365108388134
H 2.2387224121717795 -0.06249452463695959 -0.1494503827999529
H 1.408178482460848 -1.5490346862003084 0.514632172953594
H 1.4548396133647774 0.05125697023308399 1.4374248479782847
H 0.4812445213735383 2.1712375858162947 0.1990398557724804
H -1.2729478413318378 1.785913616345765 -0.35319322394435826
