14

C -0.7490497221547401 1.455618351885173 -0.18296535529561256
C -0.2023804191241227 0.09359333466928692 -0.33648407631554444
C -1.0904054020803355 -1.021246614740807 0.058045393351371696
C 1.234168694578401 -0.06471654242995867 0.03710710091266256
O 1.6924891623566474 -1.3670585786978415 -0.12821921181094856
H -1.2336667838748723 1.6617091343230241 0.7914898043365428
H -1.5059957631899403 1.6164822531007659 -1.0029347315370065
H 0.0532779264696405 2.195173061657196 -0.35621957046668845
H -1.8370526210360387 -1.1762596612345353 -0.773367466211647
H -1.697317872239583 -0.8286722236871473 0.9760991538853645
H -0.5162317133175005 -1.9601850455922112 0.12590066832361094
H 1.8517780958437284 0.5678557694584851 -0.6635974304912601
H 1.4768467170084083 0.27861711616752277 1.0641545852468335
H 2.52353970076035 -1.4509103548787832 0.3909911360723509
