17

C -0.488400290893922 1.4062510625786804 -0.9866969552734514
C -0.5127182767958853 0.49244723420248315 0.18981534767401795
C -1.2992937182530815 -0.7745486381669621 -0.03691252839219511
O -1.2143471294101256 -1.5095554566437872 1.1672743894094748
O -1.9110230790933163 -2.6238363161886027 0.9559422655137214
C 0.8792957233812113 0.15437679848814373 0.6929518210135476
O 1.6029982531894766 -0.477859721810488 -0.33602894763198793
O 2.800485197723735 -0.795352470380475 0.017557542343450406
H -1.39073270459481 1.2469316198975897 -1.5904386652789844
H -0.41346854770712493 2.4509646860095913 -0.6196203047757765
H 0.45169281735893746 1.2323383040795122 -1.5736501856022027
H -1.027433177865797 1.0337019975080834 1.0262858252286036
H -2.3534550396938867 -0.5043018091287315 -0.2138022213982748
H -0.8641254465020538 -1.4105672225832047 -0.829310674128136
H 0.8129265925181678 -0.5995770781105086 1.5053511818618144
H 1.400424690367059 1.0311797342076947 1.0982125828351095
H 3.5271741362714315 -0.35259272395902225 -0.46693047339871097
