15

C -0.20491346528788631 1.381722433446636 0.00430269994182968
C -0.3458436086611593 -0.0475633306019852 0.5114070261591918
C -1.8030355633355244 -0.45099640521681056 0.32978341169842734
C 0.4509725372137294 -0.9971682928304835 -0.3589292642387328
C 1.89563253183659 -0.6588082970211913 -0.36555242164601315
O 2.328722130572444 0.2788735468381101 0.2703720293363524
H 0.6580622831110133 1.9011991350984143 0.4954867427505865
H -1.1411522824246212 1.930871892910411 0.20382135776973456
H 0.011605848111173944 1.318849741647158 -1.0809136645957758
H -0.08483514705992518 -0.12648009067181107 1.583600895090794
H -2.3570773545295998 -0.438148957516854 1.2659970800875304
H -2.286385256656279 0.05842035418070575 -0.5088488765632249
H 0.23761853600873584 -2.0210615290194105 -0.022127132947467276
H 0.03446029362175996 -0.8893564394414111 -1.3890293726774539
H 2.6061685174795 -1.2403537618015201 -0.9393705101657333
