12

C -1.1835337164466933 -0.9466764772169258 0.6552574161959901
C -0.3811345145988797 0.13515193769874503 0.033882655610809075
C -0.9561847188780163 1.2583626137176838 -0.335747959151174
C 1.0785180291488323 0.012421652269006619 -0.199136187570541
O 1.7729016566112146 -0.18853276197720478 0.9899663402309115
H -0.8226318987696677 -1.964013611324513 0.34195084842546397
H -2.250961556310206 -0.9069983629763921 0.3524143395338486
H -0.41901440852074767 2.0774188514186234 -0.7924363179998996
H -2.0175115671216095 1.3672329113942958 -0.17482539567624544
H 1.4574105624974707 0.8505084213533805 -0.7878521891648284
H 1.2005891176933843 -0.8963625517325644 -0.858967864228618
H 2.521553014694935 -0.7985126226241577 0.775494313794294
