16

C -1.5077392602243356 -0.879083304187396 -0.5179232318635518
C -0.4013203754748251 0.14867711408499257 -0.4894836693802103
C -0.7910130860703419 1.376831239631807 0.30546094066362206
C 0.7871919231415304 -0.47607260622548264 0.16546051417534427
O 1.8789332410955144 0.3720969680510322 0.25345105911645405
O 2.9085684049364926 -0.16612817306976416 0.8201310820792402
H -1.2728114388303848 -1.6038663171930876 -1.3397492258726493
H -2.4899150627476287 -0.44627253405968603 -0.778182456487465
H -1.510666047174497 -1.4463806518738644 0.43002372879518974
H -0.19928666257912728 0.45294212339630524 -1.5340603409906886
H -1.6688697271425148 1.8782235921912125 -0.14320403415059157
H -1.0241555453587101 1.058184863720326 1.3483113241441667
H 0.10187855351193324 2.02589444964373 0.3777850537068417
H 1.0076355023002532 -1.4376244949422392 -0.32225059719989047
H 0.4894332018337456 -0.7028336103385204 1.2304063973782717
H 3.6921363787829344 -0.15458865882936698 0.19382345588592154
