15

C -1.0091874616014294 -0.43776954249245265 -1.1992087780340626
C -0.7954211272950121 0.29056206628124137 0.0836242605391171
C -1.0093456004833772 -0.6455866431149215 1.2157577498739516
O -1.308478701102906 -1.794311081812088 0.9342711729025601
C 0.6147804866794022 0.8293805325563973 0.2292660290545587
O 1.558942289262352 -0.18677506660873702 0.19157817015614526
O 2.7428429865360613 0.37384740806442546 0.32423748151331494
H -0.3041519900554672 -0.14972686550785552 -2.0018698858055974
H -0.8639503246635796 -1.541195746330169 -1.0485421482049555
H -2.071669536550963 -0.32536915122047655 -1.50661058438783
H -1.523640799083978 1.1233075558642303 0.23673814126344
H -0.9061701995896101 -0.33046170572635 2.256023390368897
H 0.6701785595929485 1.3138185681601624 1.227632851779609
H 0.8776025991329932 1.5412758514678546 -0.5801158048107327
H 3.3276688192225508 -0.06099617958126189 -0.3627820462084175
