12

C -0.7059721354213423 1.2405889902015594 0.2977111866974274
C -0.41694787440833403 -0.1771779097388191 -0.019095570289288637
C -1.274118900770591 -1.1502657089298458 0.18443301649641047
C 0.8842752318721843 -0.4878386362256866 -0.582222333078483
C 1.799886960811797 0.44272335711362093 -0.8150967861996462
H -1.5041453188250395 1.3303053445286257 1.0526537627205492
H -0.9033782463243484 1.817910973522337 -0.6272059648674295
H -2.23690993674402 -0.9005667480340982 0.6039020276627173
H -1.0881057266450154 -2.1872632068772564 -0.03717144123262151
H 1.0817729550850497 -1.539488753176697 -0.8104998201473703
H 2.736295382515766 0.13593841094083123 -1.2321757950522816
H 1.6273476088538625 1.4751338866754307 -0.5995105678261957
