17

C 1.7469530876337447 -0.14064422192559595 0.43141938672849894
C 0.8367449687252788 -0.42281284557905396 -0.7222069388125026
C -0.5949388007554486 -0.03497857199513203 -0.4581709292787838
C -0.7830404204159103 1.4109899914472843 -0.16113415187538244
C -1.2233576762322846 -0.8856044646953796 0.6164098104050537
H 2.7847229833208322 -0.037824811412821784 0.002334653627501237
H 1.4846134459770997 0.7495278307262028 1.0159512747988062
H 1.7837350050179646 -1.0102091789821623 1.109409300120164
H 1.1632363998553856 0.04436484797554646 -1.674480386228113
H 0.8339233986897244 -1.5283234216048693 -0.9105171118881207
H -1.1576495927779467 -0.26109793434568945 -1.4065959461853572
H -1.7938935227843347 1.7264583446723745 -0.5308999386071572
H -0.060715258735129486 2.0072771342087443 -0.7684891305323198
H -0.7137644763216386 1.644332333404326 0.9222033348406455
H -0.7673067192338177 -0.7694083449412431 1.6005616683307542
H -2.297229506333941 -0.5560413508957793 0.6876335952528347
H -1.2420333156295558 -1.93600533605671 0.24657150930347801
