18

C 2.2632743615542306 -0.5055435915813667 0.0010741673876760779
C 0.7902569563875855 -0.6407573275349061 -0.271339356595232
C -0.022446960012893372 0.4812125245509509 0.33554546031741617
C 0.36749928085189587 1.8065496342294425 -0.17879467474356023
O 0.7724547730198502 2.6527217818160858 0.5770068054427442
C -1.4684672490849655 0.2342348482682546 -0.08898527377865494
O -1.8254272644789062 -1.006612600638672 0.41391914728901297
O -3.0570098332936766 -1.3276545636021801 0.10999753101220476
H 2.795997556757249 0.011692061146526614 -0.8256800636850133
H 2.4871444812410703 -0.03992846794681195 0.9755426896765977
H 2.681842541587757 -1.5355851621165353 0.04101380318294278
H 0.41633157227346335 -1.5855471276993731 0.11576402412419212
H 0.6064970404511011 -0.6044765624024705 -1.3734286338131503
H -0.02142419697771947 0.4499253766449709 1.4425586973189783
H 0.29309345444122015 2.0236528921977963 -1.224107786263827
H -1.4369928865785122 0.13105544157634563 -1.1978872076479106
H -2.1355810870187466 1.0472599406488607 0.1903150088149685
H -3.507042541119996 -1.5921990975569171 0.9574856619606144
