18

C -2.265238102743219 -0.1025427260697899 -0.4925327856136438
C -0.8193824292409218 0.330588375346356 -0.3789407046917433
C -0.6516140190292782 0.9503985434763395 0.9964235033640032
C 0.07736137886065703 -0.8169938171845295 -0.6030123925659528
C 1.5527062065209127 -0.7405818901346077 -0.563124774175038
O 2.012828177694409 0.5467263488350643 -0.2878620460169586
O 3.328605494420819 0.5548659043988611 -0.26462054635457494
O -0.40686199953929664 -1.9164530317165127 -0.8395388244083595
H -2.43282441017718 -0.8255410477070707 0.3544227526257948
H -2.9348031202976697 0.7638479052891802 -0.34989837217834846
H -2.401107185223024 -0.5944348767169977 -1.4681152739698147
H -0.6249482509946646 1.1436001301625347 -1.1282829975137256
H -0.9227944893392802 0.2547282336206192 1.80094318153903
H -1.3855303004975887 1.7932021957984432 1.045818747043628
H 0.3577813076044133 1.3645833888064947 1.1458991854916725
H 1.8949149306682982 -1.391800559858319 0.26927418749993265
H 1.981518289513614 -1.0347782601488327 -1.543097030440458
H 3.639388521798974 -0.27941481619720615 0.16779071131067752
