18

C -1.2091571454958157 -0.7569683866157193 0.8477748097152981
C -0.7018214181571478 -0.0646789633782111 -0.4037193249956814
C -1.2034845099128788 1.3358136029666352 -0.5227335017861353
C 0.8248383582369281 -0.12934976004890408 -0.3438088800545866
C 1.1795983471797504 -1.5571564938633538 -0.3112066111229108
O 0.8458157998394856 -2.265001331033936 -1.2215248068627464
O 1.30320411000564 0.4970230323255161 0.7942856317630276
O 2.1201656641971214 1.4651466770939796 0.45790344244116216
H -0.7332354367515139 -0.28342263737537565 1.7471353102407248
H -0.8825645518730959 -1.8064384258648787 0.8374045236054211
H -2.3038133211095513 -0.6298917841329402 0.8564831742268757
H -1.0858519927716757 -0.6527075871431486 -1.2600200620190867
H -2.21258597205381 1.3371582725649898 -1.012894878823751
H -0.5598819404235628 1.9853502323434842 -1.1255504337965587
H -1.385416009172818 1.757764004498299 0.5071471942548004
H 1.2628341136498455 0.3577852374142924 -1.2442789541847499
H 1.7249867534850807 -1.9632596138105023 0.5060878537209443
H 3.0163691511280355 1.3728339240597707 0.891515513677963
