18

C -0.46079331566720644 -0.23440003642271792 1.406100565577406
C -0.38164759746205457 0.07291867264105831 -0.06471769279873221
C -0.5263157965725628 1.5734163854203094 -0.3373858352349525
C 0.8546535068736899 -0.4549416296422975 -0.7169362273821973
C 2.1038238713578905 0.0829059381771377 -0.14574149034246506
O 2.1593642324583433 0.8843472186065336 0.7726608439335103
O -1.4919234893864566 -0.5173355103932636 -0.6696417157402361
O -1.4813976553276698 -1.8317209024861227 -0.4752100546261861
H -1.270448407805333 -0.9523553272585743 1.6562668261826559
H 0.4967047588247253 -0.743760406523763 1.6927494923567106
H -0.5639288200647925 0.6609949673109509 2.0380248098186557
H -1.4371000200650657 1.9314490779460292 0.18096748949784802
H -0.7083573341856986 1.6512796550709898 -1.4358457531990614
H 0.38133186333960883 2.130207593775594 -0.10447573801892594
H 0.8287726360874702 -1.5743151208558552 -0.6254462808687706
H 0.7783237178561091 -0.2434099764269756 -1.803408236663662
H 3.049215540467971 -0.24702929717325328 -0.5599092810735222
H -2.3302776907289413 -2.1882513017658365 -0.8080517214179967
