18

C 1.3466107483272693 0.32998140867320536 1.305884606335689
C 0.6740978099808711 -0.5988408535655066 0.31353840054712184
C 1.4724116463675168 -0.7046118622370214 -0.9453422701331253
O 2.510304447312165 -0.12444317339261143 -1.134795533918938
C -0.7061131430092668 -0.019780412429352474 0.04754514378712517
C -1.494290952514757 -0.8484626916207343 -0.9303567641194231
O -0.6391993914273794 1.3044334848336443 -0.357989816775933
O -1.2043123669812472 2.1120432595290057 0.514217642746331
H 1.3824518158950623 1.3382153129806458 0.8417979978948356
H 0.6139319553487642 0.4344656370967506 2.1582321035052088
H 2.310276492661509 -0.030167425030268535 1.6581998945372085
H 0.5261555204591248 -1.5980218432192477 0.7575886400845295
H 1.0998452106681076 -1.3407950455149982 -1.7402567231044233
H -1.2353192779110513 -0.03906188969671947 1.0294375198219867
H -2.462672543273905 -1.1931585671342104 -0.4882383239692118
H -1.7100707612297457 -0.22190871603209594 -1.8353078660565125
H -0.8992181090773083 -1.7165135580911157 -1.3099830917464572
H -1.5848891015957174 2.916626934850617 0.11582844056398618
