15

C -1.4989879819334462 -1.1457181636964202 -0.6809342004025505
C -0.4286421412430055 -0.42278707437010155 0.12794158383701085
C -1.044003755246208 0.9122286922126506 0.5394904119585763
C 0.8005047718614784 -0.23530613198797726 -0.6455329340666869
O 0.9092303556071605 -0.6248104196918866 -1.7907899000237226
C 1.9489707155412022 0.45292869031691846 -0.007741126356151872
H -1.131075075555546 -2.1763636510807465 -0.9470689166430248
H -2.3626794055437164 -1.2941504517982478 0.024360322194432626
H -0.271307321695229 -0.9962631951389973 1.0771080817339889
H -1.6327234657389376 1.3547337461300009 -0.3167081258083226
H -1.7863756058148048 0.6885626538884027 1.3191839513770458
H -0.24691102065328316 1.5941576896399787 0.8497930068356737
H 2.871674870239744 0.39650254123196643 -0.6303327834088257
H 1.6545908380299048 1.519028004768147 0.11547054661220074
H 2.2177342221446894 -0.022742930423696635 0.9657600821603393
