13

C 0.6698427714507996 -0.5580349577525874 -0.023636302429752967
O 1.2524961726506076 0.6952572719453158 0.08805087711856356
O 2.4737109569175137 0.7384841030102115 -0.3421252426080993
C -0.7468779668620014 -0.4997453053653907 0.5033174951368953
O -1.3692827123409645 -1.7411797107956661 0.40908085500718505
C -1.4991072642438148 0.5131774058171686 -0.31147698504628746
H 1.268846622036682 -1.3578422896696838 0.45822455751592267
H 0.5931000615216517 -0.856491668093361 -1.1052414538814401
H 3.137545776158913 0.9788398553870861 0.3744121889780379
H -0.7467866741487528 -0.2008846439120852 1.5804645023951234
H -2.6053740260723117 0.32506368114047157 -0.2990034539083192
H -1.2432437534950609 1.5110141503630066 0.05046807840205216
H -1.1848699635732687 0.45234210792552515 -1.3825351166798892
