18

C 0.13739997266918955 1.81336382567177 0.0641351053914746
C -0.12813289174187686 0.3958478419123894 -0.35641074590806104
C -1.4067960429902144 -0.09361149322339307 0.28181240091969484
O -1.69851111862897 -1.4088933117604188 -0.0783929358516877
O -2.84047788160968 -1.6900043846711252 0.5574582802399126
C 1.0569263426423998 -0.47576610824692533 0.030416058298488875
O 2.1631856043287905 0.04853795635916534 -0.6407412260076496
O 3.262370450654698 -0.5908798749669533 -0.4125670023669603
O -0.31110129334728276 0.3763918383179251 -1.736847020409705
H -0.7204335699996934 2.254000908199596 0.6143413885220517
H 1.0006665390092577 1.8625537259727838 0.7713555104569799
H 0.3924770827870335 2.482341709963637 -0.7739278670231791
H -2.2284251267801274 0.5292751366711673 -0.16218729809513113
H -1.3844152409629085 -0.05204576481806283 1.3717289643062704
H -2.6428759397596844 -2.215234985082576 1.3772062820296902
H 1.2792848924380504 -0.3812500363267154 1.1123562256902357
H 0.8811560335104386 -1.528666824990127 -0.1860160068545889
H 3.187702187780628 -1.325960158982196 0.24655529566055367
