16

C -0.23638722782022228 0.8469324449978355 1.385167748977588
C -0.5081043723541523 -0.14006691271511143 0.24184233977021366
C -1.198549410130576 0.5418561719870815 -0.901139656028574
C 0.8077371072746762 -0.7104197231064154 -0.1892042972232189
O 1.6062755973418987 0.29552356138977376 -0.6906402844301287
O 2.7801598576759625 -0.12938869890036814 -1.089856579184428
O -1.2851614406205987 -1.1712554304200624 0.739057663409804
H 0.06400162477505729 0.22905794687092845 2.2651380791094615
H -1.2409737562289538 1.276915729962524 1.6289581674096234
H -2.305372075453724 0.474277078561348 -0.8119517995740535
H -0.9458911252711667 0.017530354359066514 -1.858628726013225
H -0.9451308960722345 1.6157210342516264 -0.9224558688629713
H 0.6060826920151037 -1.4160958295832597 -1.0383789026025332
H 1.2767997987131567 -1.31186129805909 0.6026017347791611
H 3.5363975156836824 0.355459778442675 -0.6701974394526755
H -2.0118838895279016 -0.7741862080385687 1.309687819915956
