18

C -0.39720720893906164 1.19762446606951 -1.231037635756306
C -0.05449906408990286 0.33907536191548293 -0.06811733637356346
C -1.0080659533643157 -0.8389087421606582 -0.0493273174531389
O -2.316797164694451 -0.41385310168259276 0.08053451780944344
O -3.1706593317253247 -1.3938139230097801 0.10114493153046575
C 1.386479346918469 -0.11143208643876674 -0.12100976156486114
O 2.2235883770392966 0.978280223256972 -0.030331654092978354
O 3.4832594273061233 0.6835153032796276 -0.06747839807168043
O -0.24493767315601167 1.0020090915634006 1.1665958902937978
H 0.38625732967307236 1.875875703150644 -1.5638839647702714
H -1.3923583879219104 1.6226156018461078 -1.1361954232712907
H -0.8057204801524617 -1.515330107914421 0.8199379673964169
H -0.9305795519738651 -1.438406279978639 -0.9753857883470654
H -3.9531761109455514 -1.2619643535271057 -0.4795812273917625
H 1.6194530697907978 -0.7949759870915664 0.7215279061599152
H 1.5416134836691362 -0.7092229694043292 -1.0460299000809856
H 3.8767932077949654 0.5026997526979132 0.8294828449441062
H -0.2434433152289159 0.27621204742829303 1.844106192877907
