10

C -2.3536240530864507 -1.5357457667329653 -0.7579709057264131
C -1.4264654065140216 -1.0534712739581091 -0.09510860726606403
C -0.31545628111797935 -0.46018129992487966 0.7303670982668018
C 0.41413534263460555 0.24377850846880728 -0.1181578079610157
C 1.5038545608308196 1.0391419070482517 -0.2779556481795783
C 2.4688433509384407 1.765436230706836 -0.40985643434879887
H -3.2457080259426583 -2.009315912565052 -1.3762926175128791
H -0.20725646266766776 -0.5470706083726257 1.6933752132700148
H -0.14385902218881616 0.16578604220278562 -1.1983166557707758
H 3.3055359970034193 2.391642173064773 -0.5059774490957426
