13

C -1.6422637763115306 0.455296604192523 -0.4301681785751816
C -0.3110101599363523 0.5021691327652035 0.2773445289239622
C 0.6113966808360409 -0.6010386416374134 -0.20367271443995105
C 1.8922340239245927 -0.4963251957743803 0.5295100595212465
O 2.729918867589353 0.2921595340842718 0.18745535719806436
H -1.9817913553312319 1.4684078510849954 -0.7232703180520695
H -1.6113908465897688 -0.17374600141219568 -1.3540545697922282
H -2.3937267611892974 -0.044209388165057664 0.23424890168805274
H -0.47240330465068775 0.3521500414004399 1.3734405378659535
H 0.1634533710345879 1.492928682024076 0.1316072953739531
H 0.7884303684692268 -0.508174924864591 -1.2968916549230174
H 0.1736830343289293 -1.5963520897749024 0.006428227230747193
H 2.053469857826139 -1.143265603922973 1.3761078996350329
