12

C 1.2707421431899573 0.4494555281005547 -0.04502489472547012
C 0.3151091177440333 -0.7155378292424237 0.15297317048705994
C -1.0224300430803284 -0.2666930525439438 -0.429901288439452
C -1.4985149828103241 0.9325965348717475 0.27827111061953447
O -1.8165447880229815 1.0062874640062032 1.4301497925114943
H 1.1583736625280177 0.8186118474511122 -1.0910963223263828
H 0.9781235216983414 1.241361938557332 0.699983281243836
H 2.30944182414631 0.15682586921368608 0.13421332061661612
H 0.6403367008190071 -1.59585769447994 -0.427508315662224
H 0.22133956026515067 -0.9593241683377302 1.2240356593297244
H -1.7442780382934973 -1.1016863632927396 -0.442516162113523
H -0.8116986781837028 0.033959925696144824 -1.4835793515412037
