15

C -0.8898433885094946 -0.36581992712134564 -1.1879163732987745
C -0.40840665759471784 -0.3811630419041207 0.24445892750835654
C 1.0752646210301862 -0.5641226193750821 0.34769482284354536
C 1.7365894681894716 0.5539447986627677 -0.35620389275282244
O 2.9511444296096125 0.6405674625393066 -0.4193175913414413
O -0.717058660963105 0.8498235490154881 0.8422192225743614
O -1.550896147660587 0.7106229201286556 1.8506653210705952
H -2.004201752573537 -0.5196478588918111 -1.1415026266623587
H -0.4524437404310429 -1.1969352471643053 -1.7578084172196045
H -0.6408836475187568 0.6057020936447283 -1.6555323425249722
H -0.9752254564694657 -1.1616160984850932 0.8100583162335747
H 1.3689166170816702 -1.5461659798204024 -0.12328849236267456
H 1.3347802999063918 -0.5597053845663729 1.4282632142255947
H 1.1756384726454603 1.3428318233605867 -0.845273483946539
H -2.003374456742072 1.591683509977002 1.9634833956531959
