15

O -2.5859239981657165 0.25069672362733975 -1.730794071815822
C -2.456542407150621 -0.07367595963799406 -0.5729052863736536
C -1.1299469925681371 -0.5133692275127981 -0.10159988830698664
C -0.2238740778934243 0.662986446126366 0.1348344513098145
C 1.1405938970138696 0.2644661392767301 0.6144949398522995
O 1.7581408574227377 -0.5606392549997964 -0.3411183738731927
O 2.967675738034278 -0.9075982651427293 0.06600355571746092
H -3.2926071336260376 -0.04235383413762997 0.0974117487890242
H -1.1804204956359887 -1.1026551889188843 0.8448547696170527
H -0.7195662637688712 -1.213325770436709 -0.8622073337308872
H -0.72583514808669 1.3703460829290464 0.8233313553860098
H -0.08496864447637183 1.157719146177555 -0.8669919525039977
H 1.7400007783757114 1.194486556552239 0.7041485739814011
H 1.1338846855308633 -0.19400961429931446 1.6190848483029365
H 3.6593892049944126 -0.29307397960341297 -0.29670126128243507
