15

C 2.00817846623544 -0.2156005978968059 0.5253731487291223
C 0.9065316071265984 0.33585234914835255 -0.28005523205596744
O 1.1578334378524748 0.8681201927134127 -1.34558517191126
C -0.5230573797324006 0.26925959102323577 0.1596908399606166
C -0.874280292694046 -1.2035353625102254 0.2595083826859194
O -1.3593214403318923 0.8501469918512117 -0.7596845717647459
O -2.027647436262135 1.8599001428996746 -0.26995323223346307
H 1.6792246261871286 -0.8841277359393837 1.3326185885837967
H 2.7764393640035294 -0.751618828797454 -0.09159256677066505
H 2.5552868582556556 0.6450953777756617 0.9798469505465192
H -0.5823469852186636 0.7785611026290484 1.1451082714336527
H -1.4065924655314754 -1.3567767497713128 1.2331380147255921
H -1.6013427329470753 -1.4965094205408185 -0.525806604917223
H 0.02745161425246005 -1.8429613344641833 0.2477637200102017
H -2.736357241194251 2.144194281876575 -0.8792686006178273
