18

C -2.1790622717771506 1.083523474078501 0.7585241494374472
C -2.0371313920138214 -0.15269777823723066 -0.11397330167893413
C -0.6643394587413995 -0.7639246831979505 0.04846489640218245
C 0.44074637044401294 0.18492843685076726 -0.33700464337380204
C 1.7523171093943435 -0.5475730399996339 -0.12860023773969548
C 2.9143731322204607 0.3175473394608989 -0.48643848420296487
O 4.020877842624132 -0.17751651192753626 -0.35477791341170517
H -2.197848629372582 2.002766538390802 0.1538342291926014
H -3.0948407595770973 1.0321130188508474 1.3819996617196202
H -2.3062466331189566 0.06429090350779036 -1.1492956510329733
H -2.761384387770639 -0.9067161933511583 0.28057379247084935
H -0.5470967527593681 -1.0074830457038293 1.126335736684381
H -0.6213706795356337 -1.6984229403688396 -0.5144106525197623
H 0.3489890557170131 0.5663537842509934 -1.3599372937286611
H 0.4435705908736077 1.0535398014761934 0.35261421910296425
H 1.8440468150417189 -0.9357931212061182 0.9058025505948399
H 1.8184512086806648 -1.4441483010829925 -0.7960539759823428
H 2.825948839670705 1.329212318208495 -0.8451665392516846
