18

C -2.732255189931319 -0.6599976843245631 0.12647735857765696
C -1.6100289582413523 0.3379286894233999 -0.16385458373623646
C -0.311957101740128 -0.139869878768104 0.4531010549476836
C 0.7435002332829893 0.8703972462456017 0.13818828350689297
C 2.097335927271359 0.4937933125298317 0.7107284700269652
C 2.553535955500026 -0.8032426294060014 0.16394058100913822
O 3.6194848969801554 -1.2510823331842826 0.5190818242768388
H -2.6012846639256577 -1.5799690439023444 -0.48244204845591504
H -2.6671452948811507 -0.9102273728833584 1.2113194741229047
H -3.715729476317294 -0.1984875669255271 -0.02686617881882266
H -1.4635704625421722 0.4382016226223426 -1.270696917365536
H -1.915752163544736 1.320190404565052 0.25809393846726425
H -0.08444626138765615 -1.1412944725280696 0.05386212530087047
H 0.8378379343903287 0.9589729109856576 -0.9607453465807025
H 0.4406541498276197 1.8426070633202571 0.5582961939361281
H 2.0390743155411553 0.4702394309321092 1.8300790309153376
H 2.8065832459386275 1.3116320224516085 0.4607657943242778
H 1.9641629137791743 -1.3597917211535961 -0.5407897751666301
