18

C 2.518415151740108 0.6991927013173544 -0.282936126513046
C 1.2293633105590236 -0.006304190520985897 -0.6120862768034796
C 0.44399927598806493 -0.3097992931264409 0.6222186771904349
C -0.8349567990204673 -1.0226681114545748 0.3530303721794868
C -1.8098780875638807 -0.291326827576966 -0.5186627750541742
C -2.190440495865732 0.9970300952500997 0.08081150006051345
O -1.6781820872019118 2.08527255538486 -0.1726661318928863
H 3.1093850129277234 0.729033335466139 -1.2432161720243609
H 2.414474620206479 1.723609634671331 0.06670462029182544
H 3.1487686747170334 0.08762129166339433 0.42022575139123997
H 1.4962804163613936 -0.9586551125862525 -1.0961904747262166
H 0.2876568374218124 0.6455307224967901 1.1582672675669807
H 1.063351181394476 -0.9731650887697652 1.2779749945076324
H -0.6636363434294628 -2.0569068522829173 -0.029711124630808973
H -1.3807277956112147 -1.1862857148261385 1.3263024606664826
H -2.721330011433835 -0.9336137769593643 -0.6120833082385494
H -1.4211900459592408 -0.17732799231024754 -1.556079145357839
H -3.0113528152303486 0.948762624163702 0.8180958913867663
