18

C 2.24105191913772 0.05761280893486758 -0.570190530050628
C 1.3914157083834062 0.20731667901350012 0.6957429420291218
C 0.20717803906040166 -0.6899015174070169 0.5834375085433428
C -1.091916371579396 -0.13414946524832574 0.21406883102701638
C -1.6670630411764897 -0.7014271821837395 -1.0576937307297603
O -0.9493559447517039 1.2370049196234227 0.024722878509779316
O -1.6809625190106046 1.9235306080344312 0.8444164178746979
O 0.41004847910395653 -1.875622262846275 0.8167649970990023
H 2.9920954313411725 0.878815346988038 -0.5510399291702497
H 1.5864235485204816 0.11394115338567327 -1.4766336151693142
H 2.6960547118188285 -0.9376886131208488 -0.5529973946155177
H 2.003794207561057 -0.12196062096314925 1.5596425378242007
H 1.1047509449584028 1.2716492908876655 0.8392276665286906
H -1.8238571139170376 -0.2733148416707286 1.0526779430801005
H -2.6286954123458823 -0.17177529178986714 -1.2314915784714386
H -1.9094335211185627 -1.77542056841406 -0.9830085068480439
H -0.9933093798724624 -0.43679356420448856 -1.877485030798758
H -1.888219686113288 1.428183120980918 1.6698385933377355
