18

C 2.5206944704196186 -0.32784085787653267 0.4468185625173924
C 1.1747242574348762 0.29947144427135947 0.14665954414455445
C 0.05779907182627977 -0.7446368314232911 0.2739775650975437
C -1.2447585637048832 -0.030119019769844897 -0.04227171527181922
C -2.4027959876281098 -0.9415792361154526 0.048631390079423756
O -3.3330533600604304 -0.6401107878317703 0.7711241972646753
O -1.4258310294749579 1.0890122095306234 0.7646957652961615
O -1.5041005150528228 2.1996258946159197 0.1019409044783188
H 2.442947063754384 -1.007188520058754 1.3133614325776333
H 2.8581037286723094 -0.9064774745353189 -0.43964633133847436
H 3.2484454526493725 0.4918218283629172 0.6164034811485208
H 0.9205553142864145 1.1020517363998388 0.8436142340604982
H 1.1657523867458233 0.7265568186561407 -0.8770124053637293
H 0.19036460242541392 -1.5522983756937978 -0.44476960623615835
H 0.050939006288257954 -1.1664918589927025 1.2937526780497015
H -1.2134456627974226 0.33919726233527137 -1.0881488716803136
H -2.3690936173008486 -1.8524632085363584 -0.5430111228562483
H -1.1372466184832424 2.921468976661736 0.6913337107788373
