18

C -2.7236926017233976 0.5045934557508087 0.8167991374253049
C -1.3180796788620979 0.02021563753130799 0.6511282152423765
C -0.7708861775888095 -0.4355130927272004 -0.624374929761778
C 0.6854290541500021 -0.7806382109026434 -0.5291478389639822
C 1.5046760396477392 0.41324719646534763 -0.16355712161699448
O 2.8618689370554864 0.06878634924648154 -0.08220383525807083
O 3.5918193707217823 1.1197062810365408 0.2161584270823283
O -0.6310852395490911 0.02096543498486826 1.6482246165235843
H -3.078295927536046 0.20756300920955262 1.8251810908555377
H -2.84920787759091 1.5625373108973233 0.5846193165249712
H -3.358250672417618 -0.09765987095860021 0.10384875177406579
H -1.313835997406569 -1.3959376357083677 -0.8817584889759135
H -0.9924530199517876 0.24379490108692686 -1.4732889533473068
H 1.0562426390917998 -1.2824454207833307 -1.453831133911759
H 0.8590683081464814 -1.5343317597151993 0.2964504331328779
H 1.1882489475573215 0.948194313693299 0.7348646707352491
H 1.4156571107093172 1.1398311376364547 -1.0091453945339308
H 3.8727767855462822 1.5203565401436352 -0.6599669629265669
