18

C -2.144477408302965 -0.20486589748698353 -0.5091768283500707
C -0.7857304996906264 0.13637144068236973 0.10831882060696449
C 0.2306220608968813 -0.9358141800878843 -0.23760376709553974
C 1.579334169512907 -0.6815216861970979 0.32590538870104924
C 2.233645430125763 0.564014793672797 -0.10969278751973931
O 1.7814284250238217 1.3861074127716055 -0.883570422537157
O -0.8726801448565368 0.34115130988435066 1.4699366538403635
O -0.5418122540160707 1.6034944014046366 1.7599570334137478
H -2.2475932022424896 -1.3045606470723725 -0.4776226222025893
H -2.9698417449621557 0.256000343155883 0.034865134370367146
H -2.124785398547849 0.0931320283954072 -1.5897542611717703
H -0.4645391691328258 1.0637326702822318 -0.4070460915720342
H -0.15249715630771274 -1.8724947173246518 0.2651065730211062
H 0.2597971868241674 -1.167332505006481 -1.3032333967338539
H 2.238666359323715 -1.5249092038036653 -0.03581582956146741
H 1.5145702702188608 -0.6952599711995922 1.43559719839292
H 3.2170933155544352 0.7726126606265364 0.2980922130042608
H -0.7512002394213263 2.1701417473029303 0.9736024319389338
