18

C -0.2872445769583008 -0.023871802048342244 0.6295476310834383
C -1.744477285156953 0.1101107694552849 0.950974257880408
C -2.618823153177374 -0.743732981802425 0.15031155697121695
O -3.821273868128494 -0.6959055874232296 0.3492703591518735
C 0.07859442344620365 0.307060643531329 -0.7673603617552082
C 1.5804799554397417 0.11646914467031028 -0.9081367023035269
O 2.190697127557862 0.9900833707804967 0.005915593238213213
O 3.50236105209181 0.8936216535226797 -0.046919279439263835
H -0.012044979310591166 -1.098143178225046 0.822217934356837
H 0.3389971766110721 0.568457578029991 1.317408103091463
H -1.9383604108352317 -0.05321026741365314 2.023401440787542
H -2.0193234268275053 1.1876741711516294 0.7510216645182353
H -2.292229344979604 -1.434557777675707 -0.6248352791022309
H -0.4346856102002061 -0.2733792681404827 -1.539846551931885
H -0.10098595130488372 1.4015195742752653 -0.9473647864316875
H 1.7973562366365914 -0.9318669651356716 -0.5633530028735422
H 1.9271744186525603 0.30057979024387366 -1.9222105321622653
H 3.853788216443313 0.06448951683937475 0.3199579549204227
