20

C -2.8868974753623826 0.18671626584958576 -0.4411221426356805
C -1.7330575929664378 -0.2629221649371217 0.4253690740442475
C -0.41846277257414066 -0.11732312179740968 -0.3133377081866141
C 0.6704857890920656 -0.5789730580112402 0.6021772813470244
C 2.046292210685812 -0.4850818391419831 -0.017789771886456137
C 2.4176441717480945 0.9065643242810856 -0.4145769035215104
H -3.6489717548041214 0.6158443317079785 0.22690633900015533
H -3.3045565379130006 -0.6344557735767964 -1.051925501123342
H -2.482583411824171 0.9616789839385568 -1.1419336469227988
H -1.693454628118654 0.2787930639651612 1.3894717629856554
H -1.8713571400210978 -1.3430998792799906 0.6854284696021118
H -0.2745634146342228 0.9817950892700856 -0.4675679296724564
H -0.47131709089140894 -0.6675416217731327 -1.267524137962251
H 0.5949062735216109 0.02119122267852469 1.5314764149205697
H 0.5005470841280567 -1.6439173005378171 0.8738703956365437
H 2.1748598732946456 -1.1817547959241799 -0.8588223508418061
H 2.765083476483651 -0.8257560198943324 0.7768917455269793
H 3.523245456381704 0.9167642068134562 -0.6000300548758982
H 1.9041057467949143 1.2197519518827764 -1.350270848354872
H 2.1880517369788457 1.651726134486856 0.3452195843790359
