16

C -0.8645950004161314 -1.1446133403936176 0.6972612204270042
C 0.020503761796516515 -0.10906303043481204 0.11566091672548788
C 1.3370428814727662 -0.5845287224726261 -0.46023234766460064
C 0.21573426970851226 1.1563616849637046 0.8810543870508575
O 0.08777123036534641 1.8558342920078879 -0.33873188722844816
C -0.7486422514852766 0.8212635579709955 -0.8023523578676724
H -0.3764434156207015 -2.1307156775200418 0.8676308589294642
H -1.678565318119344 -1.3586602098321736 -0.05567026264787496
H -1.3656117124938332 -0.8591312751706993 1.6350284651001517
H 1.8623233091006939 0.324902330644329 -0.8551740903706895
H 1.2021677872835843 -1.3470030866057647 -1.2330739268753423
H 1.934645658998779 -0.9607435900070038 0.41431111527511827
H -0.5197881633979539 1.4273231991065782 1.631084727821337
H 1.2529058820016752 1.314854725927454 1.2612515595166078
H -0.5708809303952227 0.6359202619089247 -1.8716977439616385
H -1.7885679887994246 0.9579988799068772 -0.47807870180641454
