20

C -0.5248327524112928 -1.1461483805435595 -1.0224490091475102
C -0.24285431917375333 -0.17366949397786433 0.07759396203290024
C -0.7892844265310419 -0.7475806028777946 1.3620624736814881
C 1.2409157749295476 0.034275035985344156 0.2710155868826722
O 1.8614451622766044 0.5276689329161628 -0.8659923721127709
O 3.1392737629847725 0.6684068045489125 -0.5839648602398477
C -0.8510028814018056 1.1659408932438284 -0.25613249953342143
O -2.2323550934530325 1.0869135243855734 -0.4172659559685297
O -2.6482408820524923 2.30993437373224 -0.7031824217725923
H -1.6388181939364406 -1.237354228800663 -1.1131793221302115
H -0.16387675824150796 -0.8056496459516557 -2.0173925479844383
H -0.08142002398584886 -2.125592401308348 -0.720577626361595
H -0.733271992382177 0.044311527587159116 2.1376111597517555
H -1.8052139276323358 -1.1385938051178828 1.2565292204739693
H -0.09926805898493458 -1.5687482502920485 1.673946126883901
H 1.444617613871253 0.7438187922209913 1.096739798112976
H 1.7570842929000061 -0.9240159857651231 0.5347885166755827
H 3.366138339540915 -0.11081238767577721 0.014260578785008615
H -0.4170581324425484 1.468880718049725 -1.2418957051715147
H -0.5819775038738206 1.9280145796407469 0.5174848971422212
