19

C -1.0335383938573113 -1.1905214481550397 -0.8312080134571391
C -0.32682902106708234 -0.1976065468189172 0.0668858743795298
C 0.17608485706207452 -0.9595170584473924 1.2662238445922958
C -1.2830759419332427 0.8780059064910916 0.5484236880222627
C 0.7858819578313012 0.4667099921354606 -0.6972874977040032
O 1.479612053520119 1.3937136539520487 0.0688543133892055
O 2.4401937884177354 1.9794553039574407 -0.5606301070594206
H -1.6208986808620458 -0.703206969924568 -1.621170110621682
H -0.23928436761178148 -1.8408630462165405 -1.2757294837141786
H -1.651126886180675 -1.8826592300413822 -0.1965836389156435
H 1.026412697539804 -1.6165219385103515 0.9382855508569868
H 0.44613954423286883 -0.31940259228714296 2.1167823681241913
H -0.6280150986669355 -1.6609487152540388 1.5756891910373538
H -1.1379041154124319 1.816374542308489 -0.026026821521731837
H -1.096206829235249 1.1443455677183179 1.6181497904624937
H -2.342802107934628 0.5543459882051522 0.5022619208637227
H 1.4710829321740775 -0.2833307701986681 -1.1551813362647532
H 0.33300879416991275 1.0219556850554734 -1.5445337213591988
H 3.2012648178134397 1.3996716760305754 -0.7932058111102747
