18

C -1.5701400740739313 0.17237643906931804 -1.086494048809548
C -0.49028139618702643 0.04584381584079633 -0.01586062568040806
C -0.5147480663960126 1.319826662686128 0.7920183312723689
C -0.7575085626636028 -1.1808244663915435 0.778913655601129
C 0.8286289041075624 -0.03244121406525417 -0.7453956521545684
O 1.903128818636549 -0.15189985513681684 0.14867612708389621
O 3.0215336280699305 -0.21715883500097694 -0.49266902200207
H -2.539538445214628 0.20686252562961774 -0.5761636486433576
H -1.554331343013656 -0.6446843398561474 -1.8074287762407282
H -0.23088652446116267 2.1440509616093526 0.10278528425978532
H -1.5338587946073268 1.5526844511481588 1.175450806975569
H 0.24188223808647 1.3091371352878844 1.6047363665275667
H -1.8235581466428175 -1.4883593795469119 0.7503596685821211
H -0.38832999723226 -1.093030030142244 1.8431937162795935
H -0.18514643962202518 -2.067643213422635 0.37678876481431833
H 0.8469753974222107 -0.9375311022499813 -1.3748669613413123
H 0.9681717857490231 0.8372290394887483 -1.4177809321827903
H 3.7780070180427505 0.22556140505251354 -0.05626305434154426
