16

C -0.47329526373262865 -1.1652310879494114 -0.7787216610839106
C -0.024264752971764163 0.08876692732971815 -0.05442317698809562
C -0.8544059886574763 0.2133084945972879 1.1998296797326367
C -0.16623115000201422 1.3046364542757276 -0.9110715254991709
O -0.8566366387645401 2.25016093288777 -0.6257698576900232
C 1.457243532712422 -0.0636227447014265 0.2792895104610789
O 1.9421519953744713 1.0524663313278264 0.9473538843781719
H -0.8731532101370645 -0.8962285693456253 -1.7857887840644546
H 0.3368263902263543 -1.9040777292664635 -0.8217504435414709
H -1.3239271982117637 -1.6681969910922234 -0.25042041679861293
H -1.8497853095716676 0.6115008535043345 0.8681726554466102
H -0.9911146501892152 -0.8374434042719872 1.5847551495822703
H -0.38676718995640014 0.8012554332969744 1.987139296701717
H 0.3819939527186108 1.341093314504827 -1.8430780186703775
H 2.031621937674274 -0.15799840430399248 -0.6618047950454486
H 1.649743543488399 -0.9703898107933449 0.8662885030790782
