12

C -0.9685829712083737 1.0003436052113146 0.0350672764144
O -1.8010146804315763 1.9509889754892826 0.06991209931198802
C 0.46206454684220366 1.3310113602583318 0.07687929459792858
O 0.7960246016630458 2.5246259978356616 0.14443505925975245
C 1.415812640278667 0.22692302279795729 0.03618688830764455
C 0.9731348825695906 -1.0086460758888336 -0.035417461220991805
C -0.4507160217507539 -1.3384288450362416 -0.07706786591660589
C -1.3707202830749465 -0.39971520491258505 -0.044351599249725364
H 2.47466873170315 0.4608621953524621 0.06656589297528442
H 1.7029973702873225 -1.8005905763577104 -0.06381565416229928
H -0.794236052153947 -2.360860884338816 -0.13592649533387463
H -2.439432764724389 -0.5865135704108163 -0.07246743498351346
