10

O 2.2606633031778793 1.3704095305685309 0.36880143543747634
O 1.032367179540293 1.0434372449190155 0.588174776387241
C 0.6579048180499847 -0.1379802178470603 -0.05653131833831357
C -0.7959500873866092 -0.47680659162204475 0.2352982565984372
O -1.5565657646880198 0.5867933138224944 -0.23371016662081656
H 0.8592376831901676 -0.07158832925839104 -1.129581371664182
H 1.2844329343773273 -0.9467874438367486 0.3745767408279615
H -1.1175957262972398 -1.3936884059615091 -0.2573514259126634
H -0.9798407173895095 -0.569724050709259 1.3185840939869935
H -1.644653622574249 0.5959349499249844 -1.2082610207021212
