17

C -0.6690445040279956 1.223224298217082 -0.7811919238275762
C -0.22835486150473544 0.054328585609064214 0.07616286099337624
C -0.7500607255734584 -1.2185129934811765 -0.5894809141688848
C -0.7861125972914315 0.17518283271810656 1.4331293721553653
O -1.489530334415429 1.134718957935359 1.693668393832747
C 1.2859030171551613 0.08258816083829003 0.06736747014640428
O 1.8322271141615394 -0.9478190816674835 0.8243959831288862
O 3.1344899739820384 -0.8924131276764082 0.7932646067894888
H -0.381694309903383 1.0252934655738444 -1.8301207118528486
H -0.16296811684039822 2.1207246271486206 -0.37297737661209807
H -1.7598113998203229 1.3921401462471874 -0.6695310614314182
H -1.4187927002531908 -1.7490766024980182 0.12482743689025726
H -1.3094545071909085 -0.9902904358374575 -1.5149757159480217
H 0.09084802838321437 -1.885200202172924 -0.9001021139584122
H -0.5873888031761914 -0.5695505175209111 2.2109429455418184
H 1.6083609993090395 -0.035399938840539984 -0.9885525672784692
H 1.5913837270064395 1.0800618254073946 0.4231733155993726
