19

C -2.624791998630938 0.4401312052345174 -0.6502665073735895
C -1.4799227133344586 -0.4578565375708281 -0.2858298950107504
C -0.1806232714051442 0.32090813358281817 -0.22340329830900657
C 0.9661077041601361 -0.5822595651912024 0.14245261568426415
C 2.2177600429615354 0.28740960706070234 0.17955135593914895
O 2.266832184347017 0.9253788849927426 -1.0792841745532646
O 0.7748491012383458 -1.276697977854318 1.3089067094477655
O 0.8458585703673682 -2.577414207260839 1.1667354205548537
H -2.960027735340632 1.0091496991410938 0.26497019367139896
H -3.4859561191878807 -0.13343174857988344 -1.0277864054182633
H -2.3417176606205183 1.2032641314242003 -1.4190676792895232
H -1.3980493246203345 -1.2826461674789333 -1.0128408023584676
H -1.6829202436280732 -0.9221690666606949 0.6987585006402697
H 0.0048044970366562965 0.7309112331417456 -1.2376153317628926
H -0.26060398954143826 1.1913346047764515 0.45740012330725793
H 1.1407344204635277 -1.3211328162860265 -0.6671521099251683
H 3.130520607811853 -0.3106554520562129 0.26369317744659093
H 2.1478452308783202 1.0849844864828915 0.9346959933981682
H 2.9193006970446596 1.6707915531017674 -1.0767901575733765
