17

C -1.490298412452281 -0.8071802503923647 -0.8266370034101496
C -0.4798553381961956 -0.13612141954821774 0.05989776316772969
C -0.8638750895693582 1.264389786765641 0.42575472610208065
C -0.2732615719857238 -0.8934696643375307 1.347037920968798
O 0.5132579216093782 -1.8395492797164734 1.3049477975969783
C 0.8472954649759169 -0.07627028164432301 -0.6696932748608985
O 1.748051808526678 0.5599661030726132 0.2082058090812993
O 2.9330916576951003 0.6527920437661672 -0.3491874004680901
H -2.516977856692179 -0.39781479816450344 -0.6895700507970532
H -1.5294179802544887 -1.8843857402143318 -0.5130938689406546
H -1.2164147588018128 -0.7168272606202016 -1.8957520847433895
H -0.02482109031653161 1.986960194695967 0.3193232042658366
H -1.1993533531868212 1.3289665820653513 1.4805561593912362
H -1.6859230260395404 1.6687578782091252 -0.20999059129340297
H 1.203042705494952 -1.0430021711243243 -1.0188350977305785
H 0.6798904606333028 0.5898732403053878 -1.5531501298997925
H 3.3555684585595866 -0.25708496311797646 -0.2619510967359145
