13

C -1.6804476379164395 -0.006824250040060693 -0.007330907567792701
C -0.9560936831222137 1.1536477440928903 -0.0893301493687969
O -1.610839523807866 2.3690623272622573 -0.12521404384347606
C 0.42400515085890544 1.1243460356746078 -0.13672958060798157
C 1.1240622583438857 -0.06322780770633686 -0.1038054003345386
O 2.5228617725815115 -0.09509900455446699 -0.15173929314861095
C 0.4059428423579033 -1.2321018851987706 -0.021620244752632932
C -0.978642765993488 -1.1961284745444567 0.02561547031999506
H -2.757406580992324 -0.021357520389780886 0.03147170228038652
H 1.0251219090603656 2.028501726929715 -0.2018940960925554
H 3.025230877061778 0.23061340441345882 0.6870876749935075
H 0.9755070363607311 -2.1512364545256095 0.002871284948012976
H -1.5193016547927563 -2.1401958414134374 0.09061758317448101
