8

O -1.1447659416633391 1.2137781433493346 0.6467579542469389
C -1.0573440496104813 -0.03754792320490195 0.04058584709716776
O 0.1737186505380336 -0.6591489812584228 0.3154279442232261
C 1.3952502260128867 -0.14464110838867164 -0.021325026032269132
O 1.4664655773479938 0.9393721541806189 -0.6087753048098946
H -1.2711108469377266 0.02396955873519614 -1.0570044254157756
H -1.86139496070379 -0.6694619039715005 0.468705118389092
H 2.299181345016422 -0.6663199394416629 0.21562789230151228
