13

C -0.07840238030840434 1.3538913778318833 0.008003652617093588
C 0.3102639968308145 -0.10697051476544234 0.06628932237644466
O 1.2504657778121837 -0.5081353142867648 -0.8618711129910084
O 2.207066710106534 -1.2314757920805504 -0.3457412244398615
C -1.1132419360493917 -0.23063191828882712 -0.36204090964446717
O -1.7032800418230518 -1.3670278852325197 0.14010717233313333
O -1.3814484097816075 0.9513791103961862 0.36085853459790007
H -0.008768067601697682 1.822417984627765 -0.9950569630579551
H 0.45187487232900225 1.9089164255877722 0.7823308566511163
H 0.45792790103020214 -0.42483036951969894 1.101422992003879
H 2.6786288094600703 -0.7894766084084837 0.4025151564552578
H -1.3207137360994052 -0.09288924448700808 -1.4399528639628176
H -1.7503734959052641 -1.285167251374319 1.1431353870612875
