13

C 1.4561808318532343 0.3018728589540729 -0.3944641308789697
O 2.6438517060143827 0.5939395120918508 -0.6922722715323938
C 0.9778725623694414 -1.053654528812738 -0.26477323653961365
C -0.2634438038292945 -1.2943394271785469 0.04599940722173907
C -1.2747484903420412 -0.2748940562902675 0.28961339177149337
O -1.6893239157184807 -0.41430505016758407 1.649835488728428
C -0.7548695937530021 1.0824661791499715 0.14955543941967017
C 0.4824214822847774 1.3604381993738812 -0.16050881829669106
H 1.7117212127722097 -1.8672400507823659 -0.4410247519174832
H -0.5016731367173437 -2.380994196468889 0.11392029879666836
H -2.1922544902862353 -0.4321160138580874 -0.3499991405328997
H -1.4106056031790137 1.969312897773501 0.3056326280399857
H 0.8148712385313867 2.409513676215197 -0.2515143042799468
