16

C 2.26231635258926 0.4264248403403282 -0.2494716128169521
C 1.1251957317742465 -0.5816183778472895 -0.039249909242370686
C -0.14249785950127086 0.22169019453417285 0.034441108577607266
C -1.3691644343132918 -0.619583766393311 0.24071237619959562
C -2.5395245907387074 0.3157650525062511 0.2925818586340885
O -3.689552944697954 -0.104024652557054 0.4552708990193844
H 3.245086599445488 -0.01657811341990064 -0.10868868181154417
H 2.0989360862219004 1.2064414285078937 0.5368785395177252
H 2.1130099592417704 0.9269839157378453 -1.2136784413510266
H 1.1230185006444295 -1.3268643114622212 -0.844704382173805
H 1.3339956939219726 -1.0937504741896804 0.9300753414020264
H -0.04802192445510389 0.9290881867273489 0.8867336780198468
H -0.23624313821747242 0.7789859332742051 -0.9238742871489196
H -1.3182502468716208 -1.099295533325598 1.257080975712758
H -1.5171696994565786 -1.3532145682760246 -0.5593141463262763
H -2.4411340855870964 1.3895502458430327 0.19206267617105696
