14

C -1.8831915549402443 -0.03517308194753681 -0.15175362086927974
C -0.46899985516813353 -0.5973450751205522 -0.17228246682470402
C 0.4288577013779499 0.4277220913485718 0.44698765333493606
C 1.8707644879018293 0.018435195167723656 0.5010876109619046
O 2.565862961281182 1.0883746722657148 1.106882488051481
H -1.987367944485199 0.7817563751663441 0.6016251053539748
H -2.631649153905163 -0.8287813552002651 -0.027625586823382415
H -2.077600778747181 0.45416906884110175 -1.1366869266341315
H -0.5168679989951147 -1.5295510240734078 0.4590704548215368
H -0.1462601050651252 -0.8408895370768407 -1.1824068459690682
H 0.10430565296417259 0.7114832260818345 1.4610047824609487
H 0.36773850901743493 1.3452917378198281 -0.1734175562726191
H 2.0551732152325344 -0.8692176469794574 1.1319356496372155
H 2.319234863531048 -0.1262746462930559 -0.49897825254595185
