16

C -0.8174719112239696 1.1499633218981835 0.05898483935206214
C -0.10834697514866341 -0.16182534523079697 -0.09490155006296232
C 0.44122157240252846 -0.7701413062479241 1.1658249815191724
O 1.627540429774142 -1.0500499021645666 0.45308855473346854
C 1.3335666210522645 -0.09116206222506165 -0.5148902715686114
O 1.994280149865962 1.0822884543552127 -0.2566990193340988
O -0.7991146181375368 -1.071850786048408 -0.8501324241121979
O -1.962286945613064 -1.2985619714182268 -0.25971341786153196
H -0.24915592061412664 1.8746510405994172 0.6559064381831777
H -1.12442749837244 1.5060486441041954 -0.9239222849001398
H -1.7600319115060805 0.9372311387142148 0.6400224714552772
H 0.5755517018982359 -0.0055310808435294605 1.9580849475129507
H -0.05587538118739625 -1.707391807901078 1.4894641343949016
H 1.5426848073560837 -0.5427535766797646 -1.523787758841141
H 1.936415640464296 1.7403716535697182 -0.995011809329314
H -2.5745497610102146 -1.591286414481583 -1.002317831140982
