11

C -0.483675830078407 1.3126313786539452 -0.133523546710061
C -0.012076692735026215 0.13596973184302788 0.20246892761035032
C 1.4170694137153725 -0.22004445726826494 -0.035930311318790556
O -0.8576371490397597 -0.77994003975337 0.7845524308646339
O -2.0450881975784605 -1.1336916097379102 0.3047544707406938
H -1.5205915270915273 1.5198306692100263 0.059442899547784575
H 0.11604755511013885 2.0854199832446527 -0.5945329773571442
H 1.6416669041497065 -0.26061843646104244 -1.1197763775246188
H 1.622405144269219 -1.229099226896318 0.3676776108114837
H 2.1093378560421496 0.5565256018997286 0.3876189792662218
H -1.987457476763284 -1.9869835947344352 -0.22275210593053793
