9

C -0.24917363815003526 1.0729927839795335 -0.14986793255223305
C -0.16759473963545574 -0.23579183932583478 -0.012079654883030559
C 1.1328460034437804 -0.9173643138872593 0.1781743953847789
O -1.3073925087347944 -1.0529004331212857 -0.03823050872435019
H -1.2264948038852856 1.4953062893435092 -0.28391428307166855
H 0.6602267912123578 1.6484457252391127 -0.12143293803928566
H 1.397909747087575 -1.0661562523227464 1.227264437923066
H 1.8981773410367353 -0.3019671601788778 -0.34644273529351405
H -2.1385041923746333 -0.6425647997264029 -0.4534707807440039
