16

C 1.5010540303160411 -1.1453422254997607 -0.05062865092245202
C 0.472425475245173 -0.1299780447630504 0.44723706220321724
C 1.0200629835277186 1.2202966919740528 0.19744366553452908
O 2.0915129549407796 1.449951343212222 -0.3108671923312181
C -0.7802303677843699 -0.3645943622074184 -0.3714517261265982
C -1.8948853710326703 0.5653187437439758 0.0032983170183678765
H 0.9700275569916529 -2.135767610760863 -0.04033602605800021
H 1.6731751964511876 -0.9045812197752277 -1.1156494953939116
H 2.4038981452175485 -1.1562051641861402 0.5673266831323772
H 0.327165262366563 -0.28178170659918644 1.5182415368925093
H 0.42163315222800957 2.08334332633132 0.4893997466024428
H -1.1455442320746148 -1.4069336452855938 -0.2743134297451666
H -0.499977008998405 -0.20328860810619429 -1.430028989971554
H -1.851624798066251 0.7524318261920317 1.110392047725841
H -1.8103346292453755 1.5200898921901869 -0.5561668759235209
H -2.898358350082981 0.13704076353965158 -0.18389667263688242
