15

C -1.761113999520199 0.36733508470572535 -0.1317059937941736
C -0.37455378357102226 -0.056226089918121176 -0.6206993714133368
C -0.3971112691092978 -1.520227061187681 -0.8371330013875291
O -1.4563455903113418 -1.9967601513802 -1.2547505729479995
C 0.5978371368561417 0.33427942881709416 0.46978041451443464
C 2.0189339606339787 -0.019903395108945822 0.13507691340896366
H -2.421027642739363 0.6375388760965129 -0.972865868385986
H -2.166237497265756 -0.4434784370768367 0.4890094113550531
H -1.6661253974278816 1.27865279402832 0.500103593121228
H -0.18943091444237262 0.43442651844584657 -1.5740298433607338
H 0.24640862508458503 -0.16575653138048094 1.4017349408099968
H 0.5033437371476398 1.422218329919159 0.6532274779712544
H 2.2501257439486344 0.2627836278646286 -0.891820926526828
H 2.1422753802324714 -1.1143521147948614 0.2979602542845289
H 2.6730215104837547 0.5794691209698365 0.8268305379863392
