13

C 0.4411982534290185 1.3634283245668402 0.14415474006180493
C -0.1336155241352538 0.013560497162783578 -0.06398147624358083
C -1.5709107309616193 -0.16818785134881054 -0.42493276073909236
C 0.6006970172351215 -1.0705447662704275 0.06163654097043821
O 1.9340271213436508 -0.8827234006806103 0.39742556416637376
H 1.5473458462158975 1.289523741967123 0.16812741512219018
H 0.1568233374426975 1.7920902830230296 1.145610056900044
H 0.1931969491998956 2.068106820758157 -0.684669333628743
H -1.9008481110650015 0.6136664639832405 -1.124159990705657
H -2.1540070888065563 -0.20327848104891594 0.5175540351985589
H -1.715419396205762 -1.1480346406530286 -0.9253907328892819
H 0.17336810283897863 -2.0485665917729765 -0.09182635153024522
H 2.428144223468906 -1.6190403996864264 0.8804522933171796
