15

C -1.1187719115381183 1.1957589693326656 0.11724059065536156
C -0.6669175413606684 -0.1388286560061996 -0.24398802345131532
C -1.4442391279112374 -1.2789421614686847 0.15655947705930928
O -1.7465384616539235 -2.13543943530899 -0.6700618699308802
C 0.7148331553033186 -0.3335556589380489 -0.6833225828783256
C 1.7719929564647088 0.05863326063987018 0.3269719172286396
H -1.3728873028663875 1.855889193132159 -0.7560514971736423
H -2.065761118028346 1.1310564323009207 0.7082246669537734
H -0.3482443300937919 1.7270054428194253 0.706802227401284
H -1.7682359577900402 -1.385445554834655 1.2003340945027097
H 0.8890394625729108 -1.3940557456144387 -0.930902702684512
H 0.904709103433691 0.31820871689249586 -1.5843027458243306
H 1.717791911381065 -0.5398524399917761 1.2542679834161496
H 2.7574240870634736 -0.22449444849297345 -0.14593996374878085
H 1.7758050750233394 1.1440620855382015 0.5441684284745713
