12

C 1.1152435423823739 -0.7014785461759083 0.2815249976739512
C -0.1312876662882671 0.13296068505669253 0.27393742512566366
C -1.2609045649528894 -0.5005142245965244 -0.5045400289129481
C 0.14365678630136164 1.519739836372175 -0.18794618873160335
O 0.10590845341316589 2.4731343098698857 0.5742388707533299
H 1.0675777652371217 -1.339839570290094 1.207815528008044
H 1.9750812955477532 -0.0076492791015872015 0.40890554084540054
H 1.2364076173036946 -1.314814581436121 -0.6306162195918767
H -1.6377387082870811 -1.3467818442199069 0.11181494211981094
H -0.9499211296066831 -0.8309447053505528 -1.5042214158081333
H -2.0457700436296413 0.28032910375771 -0.619726900785576
H 0.38174665257909657 1.635858816114236 -1.2505873197578459
