16

C 0.017822245785507188 1.2559284093698608 -0.6642527196170249
C -0.10849697869790219 -0.024047863981419105 0.14024559621549973
C -1.5907012304574077 -0.316355100082358 0.2429522282757165
C 0.6514191004406147 -1.161618608822455 -0.5041621486043357
O 0.441739238402946 0.23517446793191704 1.3929337809170852
O 1.7027522532901969 0.57751551233422 1.2435361509846945
H -0.7152405962319737 1.2958916846552082 -1.493685065686594
H -0.2511818916113627 2.08641371607857 0.0449318077647199
H 1.0275134324730049 1.3932551001437217 -1.049766223561005
H -1.8287422754266145 -1.062498617586446 1.0200164396665323
H -2.088432681571539 0.6512016045199582 0.47235835889067884
H -1.955275876377767 -0.6510204475413565 -0.7402659815892074
H 1.3534416206466389 -0.7148322527425711 -1.2261544997651714
H -0.10961882808656695 -1.8254192297156715 -0.9919951376726769
H 1.2428669356008128 -1.7405951606949148 0.21538378811205858
H 2.2101355318214133 0.0010067861337394244 1.8979236256690184
