17

C -0.6521635480890979 1.7754825214831083 0.07755825176970918
C -0.44164333233050374 0.3028534648115984 0.08379249591261999
C -1.4819585460917681 -0.4711943720736657 -0.6816689846029463
C 0.961049037750364 -0.040815680783740725 -0.37572467047561825
O 1.8299714150155353 0.6679301127450981 0.48315540947405256
O 3.0845247359744667 0.4131430049616038 0.13716358517175173
O -0.5201949710396814 -0.1297923353317642 1.4271346375463825
O -0.3229218463635056 -1.4495780128988143 1.3509904869698874
H -1.5670475354835185 2.050395197694184 0.6357953469020857
H -0.5667831999705044 2.243918288051172 -0.9090544774628466
H -2.1520560272102798 0.15476970375526913 -1.2737509682430472
H -0.9340174825450401 -1.2124820532903848 -1.324083566868204
H -2.1245853324817903 -1.0997619906526321 -0.016584035990970192
H 1.1155390770290043 -1.1274139689825 -0.22263737952975005
H 1.1328620460161205 0.24141193950059336 -1.4315911116670241
H 3.095865230090107 -0.5238149353664769 -0.2086479901269529
H -0.45643972026993496 -1.7950508836226373 2.2481529712208883
