15

C -0.5757226004652984 0.4416338910565267 0.1633618116877668
O -0.2540534847435594 0.8490600198114224 1.434940733263497
O -1.796776511887461 -0.2209260526648674 0.1951816490726347
O -2.7222969544722178 0.3823693114398337 -0.5196708312231962
C 0.5029281298309521 -0.40216076081925584 -0.47991774476526255
O 1.6981947696445572 0.25415123537631207 -0.5932179918188182
O 2.1436104059051417 0.33997244127979004 -1.8215375976462587
C 0.6139808294273249 -1.6864086310317812 0.34200687423868786
H -0.7044189231734234 1.33697000133777 -0.47857161236465173
H -0.298726142103981 1.8496913017504995 1.5168746533497242
H -2.2758932319479075 0.8406697071835858 -1.2954613359524554
H 0.1817429116213275 -0.7180971935517655 -1.4932996373592298
H 2.5749125916490088 1.245797472379777 -1.8972055146070832
H -0.39165070602002927 -2.1643434336815353 0.26777211956229435
H 1.3041689167354837 -2.3483793098662944 -0.2513154381240518
