15

C 0.9912571383442964 -0.4138856325352972 -0.16450006423583574
O 1.2896165658956624 -1.6937551196431329 -0.6290544130584043
O 1.673537782431916 0.4840745715333631 -0.982893711296423
O 2.565851903660096 1.1839384703793643 -0.32559643396470567
C -0.47354376989453395 -0.09228399212227119 -0.27995774657463757
O -0.6569029896287073 1.2215560666269765 0.14388472545240222
O -1.1113396279802457 1.9575988406033256 -0.8616952394984861
C -1.3396896510692269 -1.015139780582483 0.5402200006741956
H 1.3907758270250896 -0.29977103799468824 0.8562696057486929
H 3.2927268317727725 0.5634004859857817 -0.07698202976377336
H -0.7495810665531748 -0.20580459312013072 -1.3474506525335699
H -2.085998962719181 2.037036111759156 -0.7077899702992091
H -1.8626201892409444 -1.7437901016587587 -0.13165371036794674
H -0.7705604187008172 -1.5837644498820438 1.2789485384091066
H -2.1535293733430194 -0.3994098393491708 0.9990786893292536
