13

C -1.3314120914130418 0.03032519209924723 -0.0729509569952378
O -2.0383831451269097 -0.757147510791387 0.8045087597394791
C 0.1563552074154135 -0.07465280353265828 0.06107086077817973
O 0.7655160323661651 -0.548647100419189 -1.1066243931831783
O 1.4077515361121418 -1.6779076796712313 -0.9065808195007262
C 0.6861228580719436 1.3210171341109367 0.33891622812526107
H -1.7070450367236956 0.05933003570487241 -1.0918191408090168
H -2.8790168987120484 -1.0344090093225284 0.3290232915484998
H 0.3780090545878504 -0.7878579733379505 0.8654198609024251
H 2.196774281282522 -1.5664400016994016 -0.3020843190039019
H 0.01534165169186178 2.0535997512143878 -0.17182541837954907
H 1.6753624082482756 1.419142407497505 -0.14571444464931751
H 0.6746241421994614 1.5636475581473952 1.3986604914270773
