13

C 0.303498442554844 -1.2120307787893152 -0.828638470556281
C 0.11071148358550167 0.0737580413157394 -0.0843698984173493
O 0.6478085267592291 1.1753000771737145 -0.6866158589791096
O 1.5925496056451318 1.770252610964208 -0.020156128900571578
C -1.3463915191373923 0.26471200927974653 0.28024395295531335
O -1.7974888831449798 -0.7748638020911516 1.0875012513398092
H -0.5822180783082473 -1.8524160859206282 -0.6167761217969951
H 0.37854816784681533 -1.0866725975425884 -1.923286862819775
H 1.1851423066604434 -1.7898782787532224 -0.448940195701959
H 0.6492587180955195 -0.05837871834594235 0.9010847784497358
H 2.36354700905199 2.0175122590995604 -0.5890418101301844
H -2.0027738186167667 0.24414751522433475 -0.6230661998731458
H -1.5021919609920866 1.2285577483855472 0.7872706841557583
