18

C -0.5983762474049237 1.044244074439812 0.9361689241500045
C -0.2649160142232077 0.09632162264622364 -0.17252221766433898
C -1.4330423117940712 -0.8374434724249109 -0.3881467484688098
C 0.9135804141982204 -0.7460236033637728 0.3304124891602669
O 0.5610264223088086 -1.3854109271180124 1.5151108153816524
O 1.9717231754840219 0.1260644797709648 0.5296082148283885
O 2.996390656090117 -0.20014760106760154 -0.2253301164384256
O 0.14366659621539876 0.697582739737607 -1.336478339496359
O -0.7166719557456999 1.500538708470761 -1.8752583529397209
H -0.5783844275415276 2.0953838359449186 0.6784229932529785
H -1.3893318834728514 0.7174254354846309 1.6037362588278725
H -1.5162590483098224 -1.5058705917257462 0.49780793531880524
H -2.3570491967181093 -0.255591092933111 -0.4624004481805034
H -1.2731135099261432 -1.4537873935514731 -1.3063745151000938
H 1.1766772207698872 -1.5215376959906357 -0.42321867805877394
H 0.5227689222616421 -0.692394583379358 2.232898906651139
H 3.1730215138072375 0.4501734032466876 -0.9305040946087421
H -1.3317103259989658 1.8704726618130085 -1.2039330266153383
