16

C -0.3560767795585559 -1.1481093169405752 -0.9905604470074851
C 0.13202215735117181 -0.28925404061076965 0.18323639016295015
C 1.5948738756858332 -0.0077289309801091815 -0.06753632892614356
C -0.6880644534720347 1.0011335364988136 0.09521784196494641
O -0.3459290638319264 1.8915178121335534 1.0845069619062893
O -0.05137781935640175 -0.9368409744822984 1.3899479461600774
O -1.3156330542499297 -1.1979124336153852 1.578150272540528
H -1.4649563879174818 -1.237654707981976 -0.8610100027994503
H -0.1576509417643307 -0.5681171429127071 -1.900571921338023
H 0.15144893934524925 -2.127762240777167 -0.9830765641231345
H 2.0209575178342543 -0.6733320850436149 -0.8593981905512484
H 1.6952007613867852 1.0674436898243789 -0.3360191364761956
H 2.2167715877822114 -0.19301068679288447 0.8568215328932294
H -1.7696992137945722 0.785531038451168 0.16642634777383464
H -0.5209896104806024 1.405174418206667 -0.9308038285490934
H -1.1408975149596836 2.228922065022887 1.5746691263689188
