22

C 4.747278109989099 3.758744662222841 1.6829889456358629
C 3.7309609678299416 3.0883391633855233 1.1998782412784552
C 2.8384342099376765 2.5413232065252216 0.4048034671019601
C 3.0857556150504397 1.2179352795060876 -0.06702287599174643
C 2.011109870559242 0.5077695121698761 -0.3653715492862982
C 0.8878975149974077 -0.1544205843438357 -0.525673853700172
C 0.3669849175668106 -0.8456257002808949 0.6433952570377983
C -1.0165195334573973 -1.2744715456801852 0.4758749734246429
C -2.1549301782855044 -1.6407805483330227 0.3422903158773608
C -3.5407679712368307 -2.0709257886995722 0.1872597133009901
C -4.017246587917195 -1.6568322970780502 -1.1806565655630241
H 5.485077136416654 4.201649158461689 1.0324841093865662
H 1.9707787853062604 3.123114055153757 0.15254675867918227
H 3.9819034857931683 0.6908117751222708 -0.2242233345575563
H 0.5001479073294379 -0.09673721791430799 -1.5014034969775627
H 0.3867246352833602 -0.1556465249690273 1.5144380208353951
H 0.9613976893689923 -1.7335444642752895 0.8932038729158227
H -4.161927709759601 -1.6105657079487719 0.9773498789037761
H -3.6066534180086243 -3.166401688115682 0.2865319914084919
H -3.3275401264834037 -0.9187400282561963 -1.62868349743054
H -4.0867930231398875 -2.5552060353239683 -1.8326566813542193
H -5.042072300129213 -1.249788678533434 -1.0675987859385814
