8

C 2.6385310830446853 -1.127617974348061 0.6298683071734722
C 1.5387150827067146 -1.0080167176120802 0.1199444415497533
C 0.25088688948371146 -0.8927131605631184 -0.4720496975339656
C -0.45134832490229626 0.160050474618932 -0.14435507256889185
C -1.102990144533857 1.2226591743644013 0.2527562044478566
H -0.23107026164203276 -1.540631052022464 -1.1477074147968005
H -1.7025521585362908 1.10016890377575 1.1185473758378193
H -0.940172165602963 2.0861003517804177 -0.35700414410602066
