11

C 0.750585254123054 1.1143234833462157 -0.7760175139790105
C 1.439722156930085 -0.08327060445128091 -0.1859589384099171
C 0.5400954450655356 -0.9605993604819639 0.23524615899478324
C -0.8212555835609878 -0.4439751501518729 -0.028100022099903945
C -0.5878353144436929 1.0514859901639437 -0.050948504345149095
H 2.5076071592743374 -0.23466600122184025 -0.10363294109754832
H 0.7307370249565807 -1.9231539533727435 0.7069061913007565
H -1.5459597653144677 -0.6921478090169804 0.7808257093335786
H -1.175758750715723 -0.8135928888211038 -1.0190207373379037
H -0.4589954877907648 1.378069819922534 1.0156421311726587
H -1.3789421385239464 1.6075264740850985 -0.5749415335323541
