13

C 0.9990018198737403 1.411969596612748 -0.5336654952473187
C 1.7368591104236453 0.300813491636559 -0.3545987074097866
C 1.187578168043246 -0.9108175466121949 0.2889804091597449
C -0.06860380525787294 -1.3274906152316617 0.2525790049237705
C -1.228271840083068 -0.7288118622102858 -0.41324569753015533
C -1.343360538972677 0.7058366383411306 -0.1125344375065042
C -0.41242289992530307 1.6462365829312573 -0.15503172174246008
H 2.7444755493528907 0.25902390998555047 -0.6680042583109665
H 1.8979208244707684 -1.5281424869769487 0.8478038123778054
H -0.27526561569838415 -2.253911540622151 0.7981218048922877
H -2.154105016501277 -1.273406297873038 -0.24855808545010186
H -2.357289385026032 1.053470217142542 0.19506670910994298
H -0.7265163706996249 2.6452299128764842 0.10308666273375994
