17

C 0.2621566492249587 -1.682316168083335 -0.31799343235496275
C 1.527334252282488 -1.2419810259003854 -0.297058194858608
C 1.7969500740888324 0.18176462784797523 0.24493592124059513
C 0.41098584775252184 0.6027025081067405 0.5687467197370977
C -0.4266611273414518 0.26631720787966384 1.502908575121211
C -1.6011203125075233 -0.11968058898188355 0.5398189035806239
C -1.6240909711146299 1.3147347474011826 -0.07286438456184172
C -0.33001142644102116 1.321614500159737 -0.4938303657489223
C -1.0692981427375339 -1.1116769775526683 -0.4424903616089082
H 2.290202859226699 -1.8442552863577626 -0.6351767939995794
H 2.5492938109149885 0.20434101124271922 0.99358703509074
H 2.172373465229462 0.7264508965795724 -0.639366613004424
H -0.6383622443732733 0.15938912305255526 2.5327600635444028
H -2.3991749743041844 2.0100272988660235 -0.12628892779598522
H 0.012514744462203149 1.7867036928223157 -1.4041089105231892
H -1.7991129861655117 -1.9549183556031455 -0.49553381118914824
H -1.1339795181969365 -0.619217211479295 -1.4580454226691588
