12

C -0.1806286727735584 -1.5974300642811978 0.3187344053548337
C -1.3626859369653639 -1.040316098783295 0.09945883639400716
C -1.55316759159234 0.3685556852914771 -0.2578640953828119
C -0.7542093148604733 1.3563201262183286 -0.41312757599541244
C 0.5148286490372636 1.3631931098225258 -0.16886590616022526
C 1.4897856200022246 0.291097146111787 0.05471155215808844
C 1.1646108663763604 -0.9833815199510834 0.26362209009610205
H -2.249008329214056 -1.6295826704448466 0.18088505539381303
H -2.5944081935393943 0.6159854121414574 -0.4235668569837843
H 0.9732807461247404 2.3403345437070735 -0.11317280221930848
H 2.5426600912743496 0.550586611847048 0.049976444672895685
H 2.008942066130399 -1.635362281679288 0.4092088526718616
