23

C -3.1970370738850478 0.2779742013791581 0.40239382065647755
C -2.050814671484473 0.9247742080469176 0.43495444141154654
C -1.8250219553045208 2.2629422906873113 0.6872998763246986
C -0.520082569360954 2.7122943144588643 0.6660715396150345
C 0.5258880879612009 1.8472987411260935 0.4001982474550477
C 0.3210087684437096 0.5035721681605325 0.14491828346477237
C 1.3886216308137693 -0.4267451048518365 -0.13608743884039326
C 1.59180351751225 -1.6041016383206486 0.3764420823326509
C 2.6454541415227513 -2.2322475980943817 -0.0645807633633013
C 3.258311949227102 -1.337275710233292 -1.0346259698777793
C 2.493597401656343 -0.2563569972908124 -1.0681529734506199
C -0.9989808077206003 0.06594020312194186 0.16982514077391725
C -1.4593845133733654 -1.1595653832858919 -0.039410665289506916
C -2.9404687705940344 -1.149878419653653 0.09024620442577731
H -2.621113557457934 2.96537565040877 0.898602190815504
H -0.35785424464858573 3.7760964115184374 0.8681635533029517
H 1.5459347760873101 2.2259677152671533 0.3891764787762453
H 2.953915487619035 -3.2145659898444663 0.25833279794182684
H 4.1541545241378826 -1.543714596361336 -1.5952493225655493
H 2.6469236685519815 0.6342274584528189 -1.6881935773538832
H -0.8974602699858791 -2.054078418821952 -0.2695493079659671
H -3.449029029937853 -1.4321739978892212 -0.8446778420244998
H -3.2083664897801603 -1.78575950798049 0.9539032034351423
