12

C 0.20867574572595954 1.5731847769125937 0.34848742885830913
C -1.068043736021039 1.1638827061174635 0.2196628908720605
C -1.6082531713373394 -0.12129909736185497 -0.29353937351105264
C -0.8670059912355973 -1.2869171881808845 0.25732492517989247
C 0.4385717746498429 -1.4759103645088198 0.3761213018320765
C 1.5225632776772766 -0.5603654964991015 -0.015009381673038464
C 1.4002405065488115 0.7706690996060077 -0.019757753617190704
H -1.7524871823082817 1.9220709734558206 0.5538138933049032
H -1.5402214381892037 -0.20391859132496135 -1.3984921703575064
H -1.4793386450005297 -2.1032668278011117 0.6149472439354763
H 2.469520690020515 -0.9892936601996366 -0.314797687768387
H 2.2757781694696093 1.3111636697844622 -0.3287613170555337
