24

C 1.9212593971581584 0.9990522087381211 1.0825778931430263
C 3.2382112239344045 0.9938360942434786 1.2262464732683647
C 3.817143287951652 0.008775987059260311 0.29832240580367947
C 2.846868037199392 -0.5484604327154602 -0.3733573092524123
C 1.5640279239682389 0.025199254845487126 0.06008304256659815
C 0.36410798055618615 -0.2840880348237747 -0.38851664688750653
C 0.10149518385692625 -1.2700179518554675 -1.4123671144360856
C -1.1179296966120225 -1.5113116645946458 -1.810554756323761
C -2.3176708843226552 -0.8008448671050926 -1.248655855083519
C -2.0620044718238164 -0.32624998812552414 0.13853798665994535
C -3.0057916588499216 0.5893390381469665 0.7535946409720644
C -2.4271828463400036 1.7141716202664325 1.1399393576182182
C -1.023718334185472 1.5738878018294147 0.770182555336221
C -0.7753575252001045 0.4463041482296849 0.19907601058116148
H 3.8693941554127056 1.575369208954454 1.8840683227803134
H 4.872658446488295 -0.2259935841848656 0.18093719538218966
H 2.888496190853371 -1.3232814590153412 -1.1500194976402445
H 0.9283920687566707 -1.8334605016966168 -1.8726752913051374
H -1.3482507193370408 -2.2535160071563918 -2.59056282465787
H -3.114926050766299 -1.5714035303871343 -1.1941554030521575
H -1.9683066878931 -1.2060504425769538 0.8556004839869777
H -4.06023296034746 0.3832454752414651 0.8843070389990568
H -2.949887001923275 2.5216449345510905 1.6220151239367886
H -0.24079505853472108 2.323852692131462 0.9453761676041393
