12

C -0.5171498930178191 -1.515539997097366 -0.03779980958492485
C 0.6862125460768558 -1.5760737695618439 0.4051600056650108
C 1.5075189540645222 -0.6214824096091233 0.07131123191499159
C 1.3094866409341337 0.8184357096482681 0.3389434008348346
C 0.1454175032870539 1.3810784806475633 -0.3609782883820608
C -1.0371706837310493 0.8402843930450982 -0.5446858924244272
C -1.56094194584299 -0.48988036227667 -0.10901015865323294
H 2.399749611529924 -0.955097014099923 -0.44494770673160344
H 1.1533578937009057 0.9522222324653589 1.4279824616409134
H 0.28000326791563634 2.3607759533258843 -0.7753367052577792
H -2.027223288939905 -0.3643742607014364 0.8797292054207762
H -2.3392606059772634 -0.8303489557858099 -0.8503677444425058
