19

C 0.8242826214531424 1.1607961101840025 -0.3492672307650832
C -0.19184505462163703 1.2537218343397716 0.46764065423626267
C -1.4524403990626358 1.9347967120525955 0.23521459813682716
C -2.3989814396646625 1.1296764206119239 -0.22578021930463973
C -2.141334077090406 -0.17475037765271037 -0.1372659339604865
C -0.8268552222264813 -0.6016932181508065 -0.6783295604366251
C 0.1330791383132009 -1.1926697615856707 0.27949434512015586
C 1.5880549846200978 -1.0844724635303027 -0.19671710230544473
C 1.992631876773865 0.3684853591446962 0.17474112912688647
H -0.13496748971256883 0.8222481379521182 1.4487670400682366
H -1.5180813424913562 2.951446024466834 0.4446591841387921
H -2.8819955977222094 -0.7939929389096372 0.3041320627765853
H -1.1904793188423752 -1.5968085644038754 -1.228199999529244
H -0.48315831900490336 -0.07938694659862111 -1.5668876449231377
H -0.04413537890097015 -2.245441660539952 0.5672250851564636
H 2.2365736209040517 -1.8078928781604895 0.2863549038352394
H 1.583458678362668 -1.1119026102626612 -1.3012920571716793
H 2.940165949301034 0.650406926958174 -0.28854063723342793
H 1.966026769612112 0.41743389408458637 1.2751113243029386
