14

C -1.2913494535846717 1.0270725141363082 -0.4286453664305147
C -0.3164047904959463 1.8567678500565732 -0.3932596986111695
C 0.9128002289267805 1.5670347798315438 -0.07696495812877271
C 1.7354464204816196 0.3610099048916109 -0.12372223817314203
C 1.3895545260843531 -0.9113772380132951 -0.2511708618116762
C 0.13943531370678963 -1.6688137808403833 -0.39423731732305195
C -1.11604312217258 -1.3361466355199711 -0.1403112967498764
C -1.7947886954172465 -0.10480604886360578 0.37935860420283973
H 1.435765640347974 2.4451501529589272 0.31325478463979617
H 2.791948769789863 0.5621870512988066 -0.03904606516588213
H 2.268176842647882 -1.5425378115394877 -0.24678840390513795
H -1.8404676802936584 -2.122851580520535 -0.3496932497994912
H -2.8788140048631674 -0.21727781204814672 0.31798577674396283
H -1.43525999515808 0.08458865417170996 1.4332402905121502
