7

C 0.01918807717248864 -0.822132526319901 0.9943815510130456
C 0.7302751282519802 0.08429989909183402 -0.02672966885870447
C -0.741269088701978 -0.000195442778985465 -0.0841767743413622
H 1.177091099660413 1.0168251922844562 0.35379015048724693
H 1.3377587398588078 -0.48221171469931723 -0.749385543172815
H -1.334094343072211 0.8002097351342634 0.40317967672888
H -1.1889496131695128 -0.5967951427123532 -0.8910593918562917
