9

C 0.12273678584355642 -1.2549964161084832 -0.34445757848879616
C 1.0658559021385725 -0.3815765638183028 -0.24948071610589956
C 0.16457066420565436 0.6768579936462794 0.14298996419092846
C -0.9117673775500927 -0.33028003104250675 0.03194694297103631
H 2.1587580991683866 -0.5166837772184117 -0.4322812357079756
H 0.36037934383016573 1.0509716731491154 1.175602706415764
H 0.0945452345275201 1.4968190198973381 -0.6161001763938077
H -1.7055490449872008 -0.11294032044343674 -0.7305392838192418
H -1.3495296071765623 -0.6281715780615839 1.022319376938
