23

C -3.3720783862804504 -0.41091321396125985 0.19355022901529237
C -2.86980042112996 -1.5825141847331101 0.5373788507151865
C -1.3949879868646362 -1.510491657884646 0.48331446011993134
C -1.0768043804042498 -0.1314023961242966 0.0586892783014411
C -2.2851112734534107 0.5114217170387663 -0.10955724774913686
C -2.249812684109141 1.843630451302325 -0.5137840366983153
C -1.0682051663146814 2.5166413338487064 -0.7434416871709126
C 0.1398298505948518 1.8711665637032422 -0.5743848088095663
C 0.09193911918196562 0.5523544723820674 -0.173945391993499
C 1.3566514986138163 -0.15373597068714992 0.012263386634126948
C 1.5448955418763226 -1.2522367973605297 0.7093310841458368
C 2.8163524224687735 -1.558179147531041 0.9099387699305643
C 3.5652242100886613 -0.6637341442899072 0.021221606723864552
C 2.681139299861072 0.17440394879293228 -0.5120398956137244
H -3.3964628041177853 -2.489149139838721 0.823450300194113
H -1.0603183616105738 -2.2536229969640225 -0.2937885807181265
H -0.9579688172238635 -1.766566320380131 1.4686803910932897
H -3.2174422768662434 2.3225012255914086 -0.6376478527725643
H -1.0611599065818906 3.5550493595458277 -1.0580878851041242
H 1.0925251047001752 2.3688571247494186 -0.7459548518834139
H 3.251870520389934 -2.2790526877048216 1.5558897502716658
H 4.625185717144518 -0.6452442410638378 -0.1944206456957746
H 2.844539180036237 0.9808167015690877 -1.2166552229361611
