12

C 0.9677179680284183 1.502274268913801 0.0685083246598872
C -0.3608676342780943 1.5488176646807774 0.11312867514900088
C -1.2367386718706748 0.4205213229215829 0.040499651151415496
C -0.6548677613484737 -0.904891141599488 -0.09393574653788811
C 0.8066897121738649 -0.9298245573444351 -0.14070991028237428
C 1.5253817081613144 0.15608107408442595 -0.0670237110088881
H -0.7863988464152676 2.550090630249419 0.21427210805035685
H -2.171760470861448 0.5095909009744588 0.621146875774208
H -1.0342267879769698 -1.6472601175917803 0.6776542744165646
H -1.0220539110220284 -1.345553952690218 -1.08029318609936
H 1.3556330621380086 -1.9002047510586813 -0.242893062723913
H 2.6114916332713376 0.040358658460125485 -0.11035429254899645
