13

C 1.0472020299552693 1.3681250126904652 0.37757745323858727
C -0.24882310962012338 1.5045917526761965 0.3085678065429798
C -1.137225149396053 0.3812445807411937 0.00446328178812545
C -0.48725817154141415 -0.9339792191677334 -0.22370583215534937
C 0.9832109692480714 -0.9608706624435978 -0.11856199171078924
C 1.6835579063003372 0.10112414748693255 0.15827926671235715
H -0.7025119971214834 2.517500715924735 0.4880902313143369
H -1.9827444533907546 0.3041964708327871 0.7453531339506876
H -1.701148322726896 0.6875918650013545 -0.9387876442303384
H -0.7901877838828609 -1.325047274097399 -1.244786443959201
H -0.9054785581432634 -1.664253826973317 0.5214703167571532
H 1.4686223559548748 -1.9490730532683773 -0.29048322566986934
H 2.7727842843642967 -0.0311505094032175 0.2125236474213269
