13

C 0.27046482139828454 -1.4189179987300864 -0.6719726447876609
C 1.4117800641121054 -0.8236822018074291 -0.4867966222181433
C 1.3834815068341766 0.5035187002347056 0.12065047754135136
C 0.2786516312093104 1.0885925430073324 0.4719151206614785
C -1.0348855399660082 0.48727339096830014 0.29871699037911953
C -1.009239846849959 -0.8526340034353017 -0.3175811929051308
H 2.3773869452265286 -1.2807580912064656 -0.7682684817319264
H 2.3674374440481114 0.975029048822842 0.2604967413297019
H 0.41603008666434543 2.0946343566344354 0.9196818083445902
H -1.5036543462712846 0.3650995466065372 1.3462991237278266
H -1.7227030264773904 1.1910905071108597 -0.2708609696971447
H -1.6361580794120785 -0.7763061331264055 -1.2728837481592268
H -1.598591660516124 -1.5529396650791665 0.37060339751508636
