14

C 0.13818650205720467 -1.6722271824340071 0.5800146239037832
C -1.065578871720388 -1.197115899765991 0.294581586594653
C -1.4311885070905515 0.010578495077036105 -0.47662874973039066
C -0.6169368037954385 1.1488455715846817 -0.015099602610316025
C 0.6766118962068592 1.28283816083176 0.19996045297034426
C 1.689311237226765 0.224219983371849 0.010187536064223776
C 1.4383138427628632 -1.0850053508321138 0.18171907215621996
H -1.9205032061341447 -1.7839771481892317 0.6868881172280737
H -1.2084730168798845 -0.2204926464562881 -1.5641273807678517
H -2.5118256708281255 0.2422279300361783 -0.35258964196824755
H -1.1768309686318763 2.0427004466163368 0.18548270829255717
H 1.0545185568713586 2.2350261085818204 0.5346457566941021
H 2.6658301921586696 0.5274447315106795 -0.2760524413203343
H 2.268564817796704 -1.7550631999327082 0.011017962493197461
