24

C -3.1641067889715297 0.7123155052643079 -0.9460433599273547
C -2.0081950722079394 0.8071076019928723 -1.5435284868917127
C -0.6158509530035494 0.5462212560867036 -1.0959167503237657
C -0.10946500264496774 0.022241866934688406 0.009102772886044937
C 1.3455821190159993 -0.04481348844070594 0.02423333141941531
C 2.08856406686461 -0.528975676006754 1.0098337694715764
C 3.5303412804064918 -0.43100488767060996 0.669826656484674
C 3.5310998709976795 0.17964477149914684 -0.6558281050824453
C 2.261100820351154 0.3964066889022069 -1.014358693767133
C -0.73028153142016 -0.4984359838787491 1.227579528414072
C -1.8097488221191518 -1.1896896220038948 1.4202747049279376
C -2.948620547269702 -0.8637105803106937 0.9179432191028074
C -3.658869949432707 0.3267530216356408 0.3833876237713532
H -2.021615872377319 1.1383714758208134 -2.5710054380612277
H 0.10655402019816411 0.8468834838527872 -1.8214006020243092
H 1.656140043336872 -0.9389392243368931 1.926377861771701
H 4.0115371841988114 0.2915739207679008 1.3914597726867213
H 4.030066625839802 -1.4193903466273865 0.7120718018100675
H 4.417862725753092 0.42237424800260154 -1.2609564141406122
H 2.0278386720541475 0.8511243423442371 -1.9807286386318401
H -0.15470005396299638 -0.2364463939950911 2.109178067381952
H -3.5991383390500906 -1.735269274291074 0.8681261768618191
H -4.756891938088865 0.18453945198098584 0.39311403558078706
H -3.429202558468199 1.1611178424770434 1.1028093247790076
