13

C -0.5162768441563883 1.3795274631413155 0.21491288644748752
C 0.8049653896694606 1.321772152488554 0.22645807020098854
C 1.630283327324234 0.17895435357927164 -0.18435822563488785
C 1.2113132472256194 -1.0964395813782475 -0.08231758016412788
C -0.09156863254711978 -1.5807326033394602 0.43509422418606664
C -1.2461336820868258 -0.9294202633579669 0.38180704932502246
C -1.5501023680468573 0.40071660637709805 -0.1820713787328718
H 1.3893114657848575 2.1809228847042084 0.5598284821336723
H 2.6074968251446813 0.3781345832321357 -0.5816611748171564
H 1.9095225569333263 -1.8492904825770722 -0.41714436542704003
H -2.1193363752787238 -1.4516031998295096 0.8230786095172986
H -2.556233568463766 0.7443290664966965 0.11387725779236503
H -1.473241341502506 0.32312902046297115 -1.3075038548267899
