21

C -2.1983470757454477 -1.40719833946751 -0.17216358324082176
C -1.0752195708317045 -2.0991764455806825 -0.10182379807731703
C 0.3373457445073114 -1.7530690940631182 -0.13423718624023034
C 0.9952878493516288 -0.5948673960029647 -0.13595278161706742
C 2.449062663444285 -0.6513116412232054 -0.17485385655833546
C 2.9117955545476657 0.587240246214255 -0.17035192482963746
C 1.783153309953273 1.4777356952892526 -0.12877687247335692
C 0.648393470752019 0.8216292881209881 -0.10782392501593956
C -0.5897520697145922 1.624283154558074 -0.0645668366244852
C -1.7039282159422484 0.8885314011538842 0.652655102016243
C -2.4891579882274897 0.04304453512650584 -0.3166879922979528
H -1.2238246665498247 -3.180793317699317 0.0054339359686488824
H 1.0012289566278278 -2.6091941418524227 -0.16314486564606445
H 3.020023358501003 -1.5503853139210266 -0.20189246864363578
H 3.9604447733513806 0.916459056752818 -0.19344958311750732
H 1.8607762640539225 2.562760830113578 -0.11624350459871184
H -0.3872139216974569 2.5723533797014904 0.4843852814597398
H -2.324040766515643 1.6202872897611091 1.1683019016809957
H -1.1999564690697107 0.22857442624297095 1.4076334882015131
H -2.188706936319536 0.3441008589261078 -1.3527886018322255
H -3.5873642644759647 0.15899552784911608 -0.1836519285143211
