17

C 0.7070776086775258 -1.5438515576580516 0.28313144494795417
C -0.560406012362803 -1.6685865554416293 -0.03306727703022126
C -1.507541382124511 -0.874020208335102 -0.836035381314822
C -1.8721186830015586 0.3422710755069593 -0.04708069369727332
C -0.931211740001718 1.4396400118055757 -0.09256873558748206
C 0.3613838482876122 1.4672455353343143 0.14749255246899368
C 1.5509663444966195 0.7878503195809399 0.5125126018517013
C 1.7916493335242427 -0.5932831775310963 0.015065050992313825
H -1.0271977175991003 -2.541443487263995 0.378305063287251
H -1.0760400158451933 -0.5411277806401318 -1.802397530251144
H -2.8568534998612543 0.6982103740276373 -0.41706471483179974
H -2.0498863132053886 0.04930951455078404 1.0220788788067772
H -1.3524250263012942 2.381921327739129 -0.3650822094929376
H 1.6462645925351933 0.7535644993578463 1.639054575581389
H 2.4353605182475677 1.4035415057444554 0.19224200244074588
H 2.028757736339117 -0.5701722280451034 -1.0888854500019154
H 2.7122204081950603 -0.9910691687323495 0.49229982183042503
