10

C 2.3313789952476127 -0.7779876813054849 -0.41430039793873313
C 1.58051764775435 0.2761918788295173 -0.10942668403741022
C 0.5422823409619663 0.10817943550101662 0.9269581284076592
C -0.6943741896721218 -0.519476665622264 0.432781182488109
C -1.3965852694614083 -0.09853217539913614 -0.5985057887362968
H 1.7537316756184675 1.2126490689880745 -0.625912288786026
H 0.2776417964173994 1.0419943401171907 1.4512379648232405
H -1.0492515882386122 -1.3917524510225603 0.959408579623096
H -1.0565001928494409 0.7849249518685013 -1.1490684409509446
H -2.288841215778216 -0.6361907019548524 -0.8731722548926927
