6

C 1.5997940019510994 -0.8105566288239913 -0.2845166991385533
C 0.6781119681951938 0.10901344050727013 -0.0552034120405749
C -0.7295041988915261 -0.2917107807515894 -0.04070486925389405
H 1.0016684474194397 1.1214637289495724 0.11263367519417827
H -1.3887915856567488 0.31139600578540483 -0.6953207378976575
H -1.161278633017454 -0.43960576566666537 0.9631120431364993
