13

C -0.7433985467730962 2.917220596915514 -0.21369764083708784
C -0.8489848447578733 1.6529728734655025 0.13964883478709145
C -0.8004340246066534 0.3537329537428552 0.22807352082064605
C -1.8005317257485554 -0.512801152411874 -0.4490914239422594
C 0.26094586816392323 -0.2224636346248446 1.0087022438898083
C 1.4304468079707595 -0.3115993823984141 0.4172606811271139
C 2.5509463014187954 -0.3536565248209128 -0.2363718415268472
H -1.280106319935651 -1.4099169972525822 -0.8870385401819675
H -2.622846318435891 -0.823549615937711 0.22963350931924512
H -2.307783618421734 0.041853700793406785 -1.2855004300581447
H 0.24948893199440392 -0.5909741690479988 1.9970106726782573
H 3.1847016083870483 0.49758654670796715 -0.14611562981798143
H 2.7275558807445317 -1.2384051951309796 -0.8025139562579096
