13

C -1.044289979217754 -0.5416917370799671 1.578772484131511
C -1.0790264206904892 -0.3176583173849534 0.27607137890276784
C -2.400371070582576 -0.48115195901648244 -0.38367395016527556
C 0.12026772357841359 0.05966382127621762 -0.41381895739378666
C 1.255093948808721 0.18455147289377558 0.24024932546622443
C 2.5421234010277027 0.5625002163212965 -0.3482370750911223
H -2.697430669196244 -1.5442318737614378 -0.22226499014790285
H -3.1213992964765986 0.12348786009262228 0.213753252602931
H -2.3860132026386913 -0.23521702434731367 -1.4448156264640684
H 0.07408833660641749 0.23877511647572833 -1.4773846807916893
H 2.3858472207227113 0.9056282882955442 -1.4044396735217515
H 3.0864337202987575 1.3481168567460353 0.23132452767448333
H 3.264676287759642 -0.30277272051108106 -0.39313426033463733
