9

C 1.5743921468943352 1.2669691998909003 -0.940912129800171
C 1.6356512747923417 0.26793751572409796 -0.09212872195036267
C 0.5904266533516627 -0.7086423924533245 0.0076343261905158005
C -0.6763605719505602 -0.40074034030107797 0.18375830645485378
C -1.8219827888167943 0.21518437934394943 0.10983447969166801
H 2.4964679653018704 0.18836961116215462 0.5408308238244666
H 0.7287465993691749 -1.7402887996756444 -0.049180022161882685
H -2.216474636948569 0.47107228519921585 1.0402337863667004
H -2.3108666419934623 0.44013854110972983 -0.8000708486157856
