8

C 2.387075334908485 0.06339279107785639 -0.4703574308109604
C 1.2885917317319333 -0.4127419622432429 0.0816731380617967
C 0.05839733818651715 -0.5708513130016973 -0.7115569563152238
C -1.0780379969191725 0.24540678402132873 -0.11756873664987397
H 1.3423761652463044 -0.6767468188335101 1.1356889121783134
H -0.8737843572565506 0.3801672054717256 0.9626852156028506
H -2.055261163067859 -0.24755729696464393 -0.27468283364331014
H -1.069357052829662 1.2189306104721875 -0.605881308423592
