8

C 2.2931810010534726 0.40464376346799186 0.11598527115977711
C 1.1553606147450175 -0.17481712568861257 -0.1875275523858885
C -0.0697448540851337 0.42635660111403195 0.28138223279232455
C -1.2023462594279113 -0.16196228267626495 -0.028209235011169304
H 1.1543782154493734 -1.0715783761999187 -0.7698990545864882
H -0.04088909925700651 1.3460405974213552 0.8768683463884365
H -1.1743885484464747 -1.0593040975427286 -0.612826024727913
H -2.115551070031339 0.29062092010412993 0.3242260163709145
