23

C -1.1756736492754027 -2.5305243650353475 -1.2662855717118966
C -1.058544481881356 -1.3812397694643288 -0.5867372682764026
C -1.8252344399529048 -1.1061027321341184 0.590541487733302
C -2.4910021111380227 0.02889933620252667 0.5814984778500278
C -3.2080974612542636 1.1289975190693744 0.44211085660735083
C -4.519023084326026 0.9614717044201148 -0.16906990948177555
C -0.12610853775486677 -0.41597737623144343 -1.0808096817474082
C 0.8951585688183941 -0.15639433989424315 -0.2893945285654629
C 1.9384479387673645 -0.04414760555544435 0.513300167817528
C 3.0290840947823168 -0.9754084213833704 0.2749031273668157
C 4.341915550767139 -0.3454477214234958 0.5053989544209805
C 4.533975214067867 0.9301320228927346 0.2532342009583365
H -1.9528162722717495 -1.6619295695043883 1.47559064842089
H -2.7166770211236795 1.9899062211770184 0.8004253212440268
H -4.904367482497646 1.9328276679139555 -0.5943586959169415
H -5.240261252379517 0.5539314044523437 0.5531719727025205
H -4.522324300210792 0.26093843900800073 -1.045955164320118
H -0.10734131878576493 0.13310398590251324 -1.9785448623417974
H 1.8217220207467455 0.7226408341609062 1.2261838027970797
H 2.918678098428203 -1.951820367920933 0.7815982248877285
H 5.137768094043846 -0.9722246143266525 0.8887947707698456
H 5.496413377426051 1.3657988958079808 0.4285288863256478
H 3.734308455003097 1.5325688518662393 -0.12539420055927414
