8

C 1.570214702208213 1.415830648583603 -0.07412896091076691
C 1.7228295013699848 0.11921283512406451 -0.041592177343684894
C 0.6907331070817497 -0.7340234888088157 -0.6023716846450883
C -0.5922620365687544 -0.5324813195283106 -0.4373219265143484
C -1.7142849505078994 -0.10855575180298328 0.1305306402994866
H 2.593702761388309 -0.3028178802905116 0.39116511917046304
H -2.211428737283801 0.6682147632287424 -0.4300266242996762
H -2.0595043476878216 -0.5253798065057935 1.063745614243615
