13

C 3.118739389864853 0.10346141276509564 1.062234216190431
C 2.4909412676299376 -0.6780620088566107 0.18960808465785367
C 1.143010402210352 -0.32912352175168763 -0.2411445822972213
C 0.509611055933353 0.7248451622759335 0.18996614290392738
C -0.8640533463899864 1.0085025479984837 -0.30022385772404686
C -1.8029028937395153 -0.1613626206522835 0.004972786830093949
H 3.019643617800666 -1.541982188005726 -0.15897317768328598
H 0.6804265929827265 -1.0119030151892554 -0.960227180097479
H -0.8764221698942581 1.129244099928728 -1.406840038670249
H -1.2516513458886078 1.9598959398013713 0.11255591844943333
H -1.6483728861573137 -0.9471048877173125 -0.7497396136049191
H -2.8452476728978886 0.2657365159627429 -0.0638379976710292
H -1.6737220114543465 -0.5221474365594884 1.042074183386396
