16

C 2.727152584760718 -1.7338255869354584 -0.4277328319222741
C 2.6764583120097316 -0.4297703306395892 -0.6264517370064452
C 1.486864448841941 0.36293291819838464 -0.4372122987419626
C 0.3332045880708225 -0.11522043750570159 -0.050741786595353965
C -0.06155826877274529 -1.4733099545397013 0.27591274205538624
C -1.3587748980839107 -1.4435041960553208 0.6181480892357091
C -1.8657791933272183 -0.09670340252897455 0.534610785990849
C -0.8922277301176555 0.6973313296176168 0.14489508972932796
C -0.9570580725872834 2.167544847869876 -0.077055250989205
H 3.6263335112651327 0.0008593150867228381 -0.9507132863342695
H 1.588413288302064 1.4334952067251525 -0.6386326233824304
H 0.5458631486667654 -2.3667156810355165 0.2587879733357975
H -1.9679880238145315 -2.290023498351939 0.9189175349708312
H -2.8882826074439065 0.2541473320437344 0.7510946562928686
H -1.463315877491117 2.3966842978297915 -1.0504252621076673
H -1.5293052102788758 2.636077840221029 0.756598205468871
