14

C -3.1963473543784726 1.4824002762080297 -1.277034068557567
C -2.145921135238604 1.0093121099362508 -0.6284987242912948
C -1.3317986746677735 0.5129027226011726 0.2554090758482499
C -1.1435782233769498 -0.9258211181986048 0.3738915308845492
C -0.06343780510467385 -1.510699188825031 -0.10164037261270299
C 0.979234648625062 -0.78314135154631 -0.7553059196073053
C 1.5690622525783253 0.1553526727050768 -0.050328697061851335
C 2.1053344460742482 1.0716173698539975 0.7281862755899919
H -0.7876648139685692 1.1764000294222392 0.9107448577528601
H -1.9308723677713284 -1.477627039778534 0.8678307762415621
H 0.02631645102035214 -2.5788399682881886 0.012404822600168366
H 1.3569609415540325 -0.885001517231774 -1.73745768569358
H 2.9264117636621574 0.7341519690545335 1.300333221977073
H 1.636299870992228 2.0189930340871336 0.6711392708201989
