24

C -3.6380229633095116 2.876413104654581 -0.4825812851250194
C -3.2534628632675755 1.6194490678264117 -0.3506042540547686
C -4.269893674410651 0.558940706791004 -0.18075006456750148
C -1.8092496301736543 1.2872547303415882 -0.3742748419074048
C -1.502330749166492 0.39076250542950475 0.7175000806855827
C -0.5094545577088908 -0.45082820039666893 0.4988753694563375
C 0.5163633304480668 -1.2031651714613525 0.1847147217159347
C 0.15426609840583955 -2.4525524186377345 -0.4556915767880957
C 1.8217262157042606 -0.6730879101446462 0.5190559428136869
C 2.721648316070986 -0.4758287621920448 -0.6263209414452239
C 3.813745777160182 0.19809395227348028 -0.3826570385177111
C 4.894098053497192 0.8866661467648852 -0.06072436200467928
H -4.500012539639433 0.4155085127770983 0.898868463759283
H -3.901068082676103 -0.37287263784593616 -0.6292543839064392
H -5.243235645141339 0.8485471132349902 -0.6681200059051104
H -1.1757967605129014 2.193940487083862 -0.28685189734322347
H -1.9171553628308078 0.26749052934100603 1.6739700159993856
H -0.5142230043328361 -3.0225700612992332 0.2516703006747284
H 1.0669911853130536 -3.0948035633233375 -0.5606530863260182
H 1.7994719921723625 0.22665848086735085 1.1274006850400258
H 2.33070412849032 -1.4500113765238298 1.1689969006772092
H 2.612883906792069 -0.8021056757777146 -1.6248665266383935
H 5.7081947514974125 0.2945963684563617 0.26387886806927163
H 4.793812077618806 1.933504071760455 -0.17174100394992278
