12

C -0.37808375156796037 1.3742067781754046 1.2096199693963061
C -0.7068124974577075 0.3287367949613744 0.5035889751807773
C -2.1231783812009084 0.25467319369430397 0.01601164300070405
C 0.18498243065426603 -0.7330004653536291 0.171534203045879
C 1.4593684435592869 -0.41528890541892177 0.055705921109712064
C 2.695880074769296 -0.014271133529972047 -0.026841511529455634
H -2.799780408058428 0.8302143856983892 0.6930394414510009
H -2.118343526030362 0.6788449178874005 -1.0049688080609704
H -2.4591433997435326 -0.8004093833057901 0.020461681058316278
H -0.011272713640118854 -1.7560994966168217 -0.0010694078800584823
H 3.254503580600734 -0.05883002001444606 0.8834104579256441
H 3.001880148115602 0.31122333382270356 -0.9921251118823362
