5

C 1.827058032059169 0.01017571398995293 0.7228719784349028
C 0.6481328301131032 -0.05658633904464078 0.17882859427874084
C -0.48766855390218844 0.00016432567243689045 -0.4596923862689812
H -0.9795506479274456 0.9377444825232961 -0.6900242305534694
H -1.0079716603426392 -0.8914981831410443 -0.7985617532058836
