6

C 2.7203586394985595 0.06935629677342457 -0.7004511628892978
C 1.4564762781900653 -0.09167898676346936 -0.4530279006760013
C 0.178902512798266 -0.03486878679016668 -0.23490593095473372
C -1.1083466821394998 0.009502156150576075 -0.170806422126091
H -1.6571389941286807 -0.8973508350482773 -0.29969135695659743
H -1.59025175421871 0.9450401556779103 0.008261003605779815
