15

C -1.9457731742101674 2.1160891595534914 0.6805327047039973
C -1.5197830701774726 0.9921164958942419 0.7507729135226525
C -1.0270267427200799 -0.36144053331802883 0.8365660307669173
C -0.8410555089637642 -0.9787674729588404 -0.5222876870701494
C 0.13556499362981822 -0.2325986364106229 -1.38572235913791
C 1.4673050033854105 -0.19372644081531415 -0.7414734313616538
C 1.8565849754985155 0.8564592330859837 -0.029801350628437216
H -0.09040446841112854 -0.4715870219250271 1.4136424147475308
H -1.7922934853346053 -0.9697570932118155 1.365417694660443
H -0.40830466674063765 -1.9960335988365108 -0.35256482154431557
H -1.8048091717889136 -1.0862082140905882 -1.0620647702906854
H -0.20775985563429963 0.7827599486451128 -1.6541041241001226
H 2.1268714125732124 -1.0429173905913045 -0.8599487544257575
H 2.8322462081954463 0.872074758722164 0.43572589779514453
H 1.2186375507136504 1.7135368062315 0.10274452807999843
