26

C -4.018449474455051 0.6091002956847243 1.2791042484508204
C -3.030777351569031 0.27843655232330994 0.24378042382702778
C -3.1173337209446506 0.7783537315977029 -1.1555846821655933
C -2.014706825713244 -0.49473524559868504 0.5493582732853923
C -1.000188445380143 -0.8491851207821565 -0.46733738733072844
C 0.31413945363792556 -0.34122788509357393 0.038456746239617895
C 1.3040564851690308 -1.174556159992943 0.2504222941166378
C 2.611548245761233 -0.6705683763410658 0.7533944448382557
C 3.701483943661807 -1.0227584495055475 -0.17322856778190093
C 4.252772478673361 0.09904852426377685 -0.5915703490955009
C 3.5884633042564995 1.2438272534433228 0.009213208933391894
C 2.6340438190628763 0.8038107119343431 0.7916369825134933
H -3.623055268092309 1.2453884320970068 2.092646694774647
H -4.611958483962713 -0.2506028267732376 1.6365763552271038
H -4.0201997237995 1.4057773564909126 -1.3118839383518162
H -3.1748562564582707 -0.11296568576680818 -1.8122434153430522
H -2.1844423168016385 1.329129262365988 -1.4263210176726822
H -1.9357790369883892 -0.8679267309835135 1.5641632847343783
H -0.9418740737028716 -1.9611896076808861 -0.5817338290181161
H -1.2024495193724947 -0.44861382345294004 -1.4597002719940488
H 0.41711516317665553 0.720885457536838 0.22014508365987717
H 1.1838947100949229 -2.2331933905468464 0.06354148266326005
H 4.037781686316553 -2.0014327742129576 -0.49282868338869845
H 5.095425341097436 0.18537166198785257 -1.2940855020784048
H 3.7948114218315276 2.3134182295025805 -0.12220989351559756
H 1.9405344445006947 1.4164086075028266 1.3962880144722238
