20

C -2.374049155031929 1.127469398043446 -0.6845262074611864
C -1.865463083398085 -0.2911524160373901 -0.6094310572267049
C -2.5969244373028726 -1.0137758492513647 0.5039194312458565
C -0.39637206136988096 -0.32144734711422235 -0.2685733363360862
C 0.42620263167496686 0.390243969756886 -1.279599050838287
C 1.640085591280371 0.7568987480262321 -0.8964726762518398
C 2.737298722872649 1.0556855646468528 -0.2655368035178787
C 3.7934564456109667 0.04143876930578117 -0.10601249353506463
H -3.3487900057769022 1.168575024614115 -1.210128596023642
H -2.512384936838187 1.4897732175429022 0.3484575530891287
H -2.0804195604693607 -0.8584871814497961 -1.5492042099973944
H -3.695189639495137 -0.9941290248723984 0.36348341210916235
H -2.215193809847727 -2.066966947132104 0.5615045913869551
H -2.2801503358212365 -0.5317531161004975 1.4531471701810388
H -0.08510301660370255 -1.3912545576847697 -0.2629370738208457
H -0.28542066965674895 0.16468415745947257 0.7214003406881583
H 2.848912358877045 2.040601967203186 0.13160269065861804
H 4.5079138723645205 0.019222202111927444 -0.969907427926102
H 4.402537091392165 0.20644576165599007 0.82336563023884
H 3.3790539975392706 -0.9920723407242449 0.010536506331695748
