18

C -0.3941774252561669 1.787111727883279 1.2356013007829878
C -0.5737417909452819 0.6910784365922472 0.2076446808175912
C 0.7872888536640741 0.06869106289597389 0.030170449940278392
C 1.8619318766476587 0.8259448119079095 0.1184402305514516
C 3.173945133845662 0.2310231953554181 -0.05172478150032436
C 3.3103024778389214 -1.0551141833025046 -0.2933531870512434
C -1.569353784420104 -0.3027535380344309 0.5959202568013878
C -2.201891063588977 -0.9064052196960647 -0.3843254846386744
C -2.7577418776116334 -1.4757871872039274 -1.4139979087095282
H -0.6630909158300379 1.4734302919610442 2.2485863659887633
H -0.8715209913947168 2.7402494025541184 0.9188190027012156
H -0.8552061018572938 1.1784471049067315 -0.7355359869328316
H 1.7644892290194056 1.889079556232149 0.31745180539970036
H 2.481809119038483 -1.7323390828971725 -0.37849639929172885
H 4.302995388907891 -1.4499177238443668 -0.4119639582066629
H -1.8697365531383368 -0.6217552449449125 1.5589177827706824
H -2.285574022073982 -2.3490154805954493 -1.789292692910981
H -3.640727552846579 -0.9919679297699644 -1.7728614765120656
