21

C -1.6848319281250175 0.4093327192915203 1.4211444433171319
C -1.8554889821702272 0.13255806074417095 -0.02987316572918347
C -3.085772071468314 0.01761936080490233 -0.5024490256263989
C -0.7114596647689895 -0.015169524306926887 -0.9428390221915673
C -0.2780442680746416 -1.4042038439693596 -1.1531725634798073
C 0.7621239355313723 -1.9203752243441201 -0.5239164999347049
C 1.509479351087938 -1.0665662178698216 0.42140432319943993
C 1.4748361980929665 0.3457313146426808 0.047619771192165
C 2.6053574667645676 1.2473993045889555 0.3790652694999362
C 0.44080978828580225 0.8555277833574476 -0.5925654910537329
H -0.8694452432297323 -0.1727164503076273 1.8720405495146517
H -1.6132155263156864 1.4714655312959277 1.6611260772109548
H -3.254278416780897 -0.18242183384471924 -1.5461226307064972
H -3.9599346958664414 0.12074372876977953 0.14333216501787785
H -0.8302574648167419 -2.041475242483632 -1.8540497420550917
H 1.0781695149307633 -2.969552122723607 -0.6920954424845117
H 1.2291743836060751 -1.2599808039374036 1.4558642026585882
H 2.880595781891479 1.7649152176576401 -0.5867182724892559
H 2.281195072561447 2.0569692153443873 1.074208381228419
H 3.4712505448165807 0.7145417240098536 0.8184385489776511
H 0.4097362240477699 1.895657303279644 -0.8704418760657685
