14

C -3.015875906863224 0.2982592780273496 -0.48446619796994034
C -1.8285738629343526 -0.16131038240065007 0.2952326682144865
C -0.5617911046709644 -0.22877142955361893 -0.5473920866180206
C 0.5883807290182775 -0.11010269724175427 0.3914156053555613
C 1.8086126722493907 0.05975041986497463 -0.10693400991839123
C 3.0119807976290187 0.18800925193111293 0.7359325724354998
H -3.9723503400837403 -0.1623924693158773 -0.14494682330964248
H -2.8362998220712 0.19354050762831232 -1.5611314935447713
H -1.9459461035502315 -1.1450811348082013 0.7730748728649762
H -1.609029376341418 0.5766541614102455 1.1118894841920397
H 0.4788728572385523 -0.15574169255787962 1.4691965568451695
H 3.7504714896325018 0.8379676669265763 0.22672098720444747
H 3.40907337275269 -0.823204047778443 0.9203701140950384
H 2.7224745979946987 0.6324225678678543 1.7269713735474792
