20

C -4.670720511755155 0.7887379502626393 0.4312352698717824
C -3.855327326431417 -0.41820233185644085 0.3454618913512979
C -2.679262878291156 -0.25850616405308086 -0.2187498885029797
C -1.48165894849419 -0.009995565197291566 -0.7004209455369943
C -0.49509715510715574 0.38146235210814805 0.24175584420610596
C 0.6462301653047742 -0.28990832253427357 0.20821443053667352
C 1.7582930294609507 -0.9368933723368085 0.01889610959907365
C 2.684585765776452 -0.370909993557067 -0.9255765807699022
C 3.7492040359928755 0.26458907572333845 -0.5284996735722656
C 4.073607604191156 0.4447752933980182 0.9229719309919057
H -5.381382446682456 0.8766692257748613 -0.438155999892909
H -5.28230268707918 0.7610736673397195 1.3487253720466899
H -4.05110648003084 -1.4048448746979822 0.6633687354608898
H -1.42465455014224 -0.13974969938131263 -1.7487176089868046
H -0.49820915514465247 1.1306659116740414 0.9872158149192641
H 1.8520405497824548 -1.8272748982362388 0.5960515121991768
H 2.4904556702587715 -0.47692357754708414 -1.9730489208089885
H 5.028767040265278 -0.12535343077741792 1.0982455518580392
H 3.2428779905218845 0.08477884344620985 1.5409832898034943
H 4.293660287604471 1.525809910446313 1.130329698367905
