25

C -3.282766477418613 -0.8403848519737128 -0.931885016204534
C -2.1092931445431677 0.07385230610958016 -1.163202316123992
C -1.3795715228252547 0.4170182281218587 0.11614770735147457
C -0.8468731323195408 -0.7965705659697276 0.7905042993511932
C -1.5872284122837401 -1.5693750013633267 1.545834078860906
C -0.25346907917907363 1.3601953048322923 -0.22505888657686307
C 0.46716912597308763 1.7030160948062731 1.0175016521869322
C 1.7394781206827838 1.4253756345360724 1.1497542936122793
C 2.4692796907452634 0.7809476921990769 0.09276709150504638
C 3.200427363859741 -0.24839470087428667 0.43898751172000144
C 3.9056900043658476 -1.2710619770882159 0.8686698310084966
H -3.4395503927391866 -1.5278949503159265 -1.8013054214928668
H -4.1804550439313415 -0.1683616888928434 -0.8059710591587114
H -1.4371187206807108 -0.4322053636329811 -1.8964107752112103
H -2.400639831077172 1.0379561397481372 -1.636745878127036
H 0.1961328904965101 -1.0409669840444384 0.643828520020497
H -2.6491285987373 -1.3885260250784102 1.7419467051594293
H -1.169728707228618 -2.4350413374373088 2.0155284382583014
H -0.6973226413219915 2.31736580234694 -0.6064777635690555
H 0.46619632605116956 0.9445014068649735 -0.9491096558899708
H -0.06613925659268331 2.189580905012408 1.826457617640747
H 2.259811383478123 1.6797385887965577 2.062906520019926
H 2.5054108136795543 1.015547894509545 -0.9354326729584945
H 4.892798163208052 -1.0281039756584127 1.173929815665381
H 3.3968910783382973 -2.1982085755540988 0.8540765657193469
