15

C -1.5211010483786256 1.5470839509904055 -0.01709122260739589
C -1.0797718971383643 0.1175099224281338 0.06222288011558641
C -2.2397250490500067 -0.8345280900235432 0.09189006460222517
C -0.1554489717707545 -0.13483915677406452 -1.0764344583157335
C 1.1439597342403074 0.030684958376112768 -0.9319237433700113
C 2.4208623087241956 -0.07673968254187556 -0.7404768041980508
C 3.6065040754122744 -0.39899951366978437 -0.25487361558956767
H -0.8223465365528387 2.147528576904092 -0.6648983581225582
H -1.4461341681418005 2.0210479944215685 0.9920448442322516
H -0.49408596712646285 -0.0578948718780531 1.0061518377083236
H -3.161001330619954 -0.3516391234326387 0.526837950784924
H -2.024767126176926 -1.718948978827932 0.7584162537211295
H -2.4374820595062543 -1.2485277988629193 -0.9185522245165646
H 4.06269691063259 0.2316733504147008 0.4953770918517711
H 4.147841125452578 -1.2734115375241912 -0.5761006868184659
