24

C 4.097711684310658 -0.2410667798853781 -0.8972291741913679
C 3.218671541533483 0.5669647902539265 -0.04940371839392082
C 2.099430965348761 -0.01356696093329213 0.2824469121633268
C 0.9325050059695221 -0.6031191121696414 0.5075712225482394
C -0.09528344366760719 -0.36449495307794544 -0.4901831720260118
C -0.29819797669079157 1.0985187832397325 -0.6258923604944066
C -1.5436729952744628 1.4208237212227892 -0.3639976952392348
C -2.111324845795205 2.8027132433863664 -0.40082032893612046
C -2.226953394289805 0.18495447639459398 -0.04166236695321018
C -1.430992053852888 -0.8687269096019241 -0.10182940814995421
C -1.8304020446682465 -2.249539773675488 0.16982228306025654
C -0.9648889734563306 -3.2398908008764544 0.08474311317780442
H 4.702623142850814 -0.982208147226916 -0.29699841552726464
H 4.795307307155604 0.37272472390616507 -1.525940020120637
H 3.3494620012422076 1.5411672258688736 0.3310398926992157
H 0.9287766529411285 -1.1683252350830882 1.3948965201349959
H 0.4978906007295235 1.7954047959816979 -0.9074735795169834
H -1.9099625671161145 3.307162570002909 -1.36431720380114
H -3.200256762047808 2.7820782663670265 -0.2220866596910418
H -1.6697643317806867 3.4102005980894963 0.4311500656610471
H -3.3025316474213557 0.1796567107984722 0.2203802700989775
H -2.850899607243894 -2.4359718243254656 0.44135397619196476
H 0.05891910072269942 -3.044286649616703 -0.18875361893126308
H -1.2461673594990632 -4.25117275903982 0.28095371383373935
