17

C 2.8857939481775747 0.573087489428662 -0.5770703370259291
C 1.7998381365913914 0.2582396379606097 -1.475853122531401
C 0.7973808732495515 -0.3837485619310856 -0.8956702177043304
C -0.07288895678906328 -1.169072363011706 -0.3842899694460377
C -1.1232976886647676 -0.6400952021188426 0.4130233959778906
C -1.9906919034290576 -1.5880527772504656 0.9034821347322605
C -1.4281005645782194 0.6911284342005759 0.7865718470327685
C -0.7809696443364607 1.7630479248798325 0.4639815434059948
H 2.5956226622218304 0.9127169931752469 0.4234439838283514
H 3.6305394770149966 -0.22438700697401712 -0.46104210473314516
H 1.6147489030224327 0.43111064344115707 -2.4903531843072777
H 0.055980132597359546 -2.2127022203842137 -0.6014832558744265
H -1.7818950876240542 -2.5984430203328923 0.63534448464574
H -2.803247270137903 -1.2567757686901395 1.5096608680122077
H -2.3202101620264477 0.854456444008604 1.42933552169154
H -1.1815503358206196 2.7313261311815444 0.8606923553986545
H 0.10294748053163898 1.8581632224169857 -0.14259434288150127
