17

C 3.2047258850587084 0.7913036118535232 -0.4369725152345533
C 2.5485483767731965 -0.4427354505919705 -0.05719165290719767
C 1.2351070026441433 -0.4186681148433662 -0.05927171010892962
C -0.06056952605263795 -0.2691146259338918 -0.12161092919795634
C -0.6720172080087019 0.18958395511140336 1.1125830170202042
C -2.129409182492189 0.3112332948172717 0.877324321347753
C -2.7071408844525338 0.03466528425098094 -0.27709495629337016
C -1.9906699816541749 -0.4223414855763925 -1.4593209290580322
C -0.6762991838148247 -0.5670713816728814 -1.3619210663419221
H 3.907133165678784 0.5822650558273517 -1.2934423987642127
H 3.796302965803825 1.165600265113924 0.44111085870776656
H 2.9229016726962573 -1.3797593289546541 0.2270341115112535
H -0.22190389031112148 1.138803322275582 1.4942402354683741
H -2.7260993943472682 0.6503652118735088 1.7262548622048444
H -3.797272274547769 0.17129421785540735 -0.3038167894381371
H -2.5259709450433787 -0.633156973362559 -2.38033405196666
H -0.1073665979302913 -0.9022668580432043 -2.209223037145821
