42

C -4.630423455527027 1.0299706150028258 1.3806823486604713
C -5.45676562494754 -0.08945268461857592 0.8888322981317248
C -4.934727757365576 -1.2266296329075823 0.40881097059716964
C -3.4660923121739704 -1.4180771764651814 0.3479055863983586
C -2.958385585536884 -2.858436401429527 0.3114439439306583
C -2.8228381657236152 -1.9798152168664531 -0.8812191362016528
C -1.4052508800345112 -1.4770492204713266 -1.1934500443669775
C -1.4892232039791538 -0.03885487236701801 -1.3668957302642588
C -2.257040247788739 0.7371578796895014 -2.327858372621737
C -0.7713877979125691 0.6800322927357605 -0.5457666243740664
C 0.06529198239223244 1.371740685567044 0.2086702983901564
C 1.3799514280014897 1.585941142784777 -0.351167406669246
C 1.997022600984157 2.8612014134117763 -0.005369916684459942
C 3.2576964518152067 2.956790720892122 0.3376754620562418
C 4.079557594928966 1.761513232391334 0.37924051380676876
C 5.347109168743557 1.5316432235190038 0.6766591381184268
C 5.770792957949443 0.34074532572547694 0.38842987012404295
C 4.598946855990951 -0.5329175770107896 0.18281594495828946
C 4.34470881008904 -1.481933456489754 1.3054284331668264
C 3.490787048284931 0.4836045321545038 0.04051427310209484
C 2.2324449705169958 0.4107254158410113 -0.2985958159540509
H -4.6510779299772995 1.9243205658351727 0.7530177001182657
H -4.741589757997188 1.2390783143014563 2.4517797598912483
H -6.539218485733468 -0.02101745772024275 0.9025586697382508
H -2.8874288491154814 -0.7061522627178692 0.9894851987775205
H -3.739270119065638 -3.6578106792178566 0.22998381649140406
H -2.0793419803328264 -3.078990650423423 0.9348686596750823
H -3.4898354816059607 -2.144398051058503 -1.7512781927531225
H -0.693707709914774 -1.7800530915604575 -0.43515440730112304
H -1.1261940220257378 -1.915012545106162 -2.19462000370503
H -2.9961173516542927 0.1097251973250272 -2.8602404030261366
H -1.5490032865663097 1.1192669792335541 -3.106384535270518
H -2.705878431386284 1.6209051708083906 -1.8370413600046764
H -0.3781586728613136 1.6576348274081703 1.1137499619771047
H 1.4040450154279038 3.7718520326359957 -0.028348024558157017
H 3.7249926199154126 3.9045438273889954 0.5969201196562148
H 6.803817337284452 0.05954407557350688 0.3167039031223903
H 4.665894521552606 -1.0227365138959938 -0.8101798885874266
H 4.915523794973499 -2.423723299812039 1.1219821517816373
H 3.263479887279546 -1.7667956220730592 1.2726110048608918
H 4.6137906316333215 -0.9908898963560664 2.255919979434086
H 1.813103431459443 -0.5471911616568246 -0.546676302069522
