43

C -4.061101549682779 -2.2152770495352683 -1.184051020642817
C -3.3754033355614403 -1.6990027731934276 0.04961944697662734
C -3.051531431910296 -0.22090544365112466 -0.20418946210208153
C -2.169668365043416 -0.19522983909941835 -1.3890694405511392
C -0.835897086913657 -0.14598387485514372 -1.3273360750192724
C -0.08225120674073912 -0.12475551969509555 -2.4998500933318457
C 1.2942163579644503 -0.0729486607992939 -2.4866871368859917
C 1.9870066326503573 -0.03956356072249992 -1.2968400654507322
C 3.3105549201729505 0.01046243721916661 -1.2582305326729448
C 4.072693982651576 0.047326230601625066 -0.011961502803614537
C 5.5000968739902 -0.20403544013659755 -0.15921362988370685
C 6.2620637786963425 0.16879333612228248 0.8410153774918603
C 6.923695730713931 0.674844916434932 1.8672970887296403
C 7.341802194328695 2.0649512434442117 1.7311979274558242
C 1.2515906771411172 -0.060398791937879795 -0.14270475695274887
C -0.13934490354930107 -0.11279925042089425 -0.14304749285482016
C -4.339885175487219 0.5211522835659441 -0.5425903142007265
C -5.267622095518436 0.3967115639541789 0.5830886487714119
C -6.044354426530261 0.27086925471897605 1.5284590639134947
C -6.9584879077462976 0.14319909524504246 2.643567726628499
H -3.427158095229245 -2.0756850753018266 -2.067859553748027
H -5.089149003533836 -1.8623325403572948 -1.318477174512008
H -4.028361333671966 -1.801038399103038 0.9423434022842073
H -2.4229937838504103 -2.2114080014462734 0.1773390924736716
H -2.631189826665778 0.26633230087718107 0.6937171416300174
H -2.6463030679947184 -0.2187217865375584 -2.3747000131346163
H -0.6069032727987982 -0.15033775990396836 -3.4425368187943035
H 1.8861328689056767 -0.057575668983226705 -3.3998492920499044
H 3.8484043287092136 0.024911720757806625 -2.195875285875215
H 3.654241131285573 -0.6967536268712381 0.6934824604957504
H 3.9224284973711865 1.0458281341495064 0.4869259394880791
H 6.0436876328736835 -0.6429255709220035 -0.9493409161708732
H 7.055519311067944 -0.013033827629956966 2.6540010488456134
H 7.574746919365516 2.30806832704333 0.6871745705893151
H 6.495479531712639 2.705606286579574 2.0931525398789543
H 8.198312662013944 2.328733326315084 2.383825887149006
H 1.730195457436852 -0.036359206348452064 0.8199954986519027
H -0.660351316630449 -0.1289283845126516 0.795961232606999
H -4.151920858972305 1.6035707228557379 -0.6742276510301849
H -4.820937404638259 0.147749702867658 -1.456820439243142
H -7.99820628255485 -0.07741751074802992 2.3346829408894756
H -6.904604112656672 1.103071423046139 3.2108587809658777
H -6.639243645173423 -0.7056202324184797 3.3077528520032184
