30

C -1.8068864057199565 -2.9698205135860105 0.5431750319364498
C -2.5826194028608342 -1.840760987202625 -0.0061064255343715795
C -2.0427987335639424 -0.7799226159864995 -0.5467821254590395
C -0.5811307877314699 -0.640965633470345 -0.6457425787570186
C 0.14998444415408524 -1.8864751161704403 -0.22458770494196675
C 1.5669436859869694 -1.5644224228921548 0.004441921945552496
C 1.9246807331204199 -0.5273091138779393 0.7191688888056228
C 3.353284145102286 -0.2412918920972753 0.9261385745063397
C 0.822881448762278 0.33606302409583305 1.280693463550847
C -0.07285935884466677 0.5400803309052522 0.09181325948531065
C -0.3688905317906965 1.7695721665103055 -0.263005445515145
C -1.2341190115927745 2.1031737712008156 -1.428491404941683
C 0.16959381455966882 2.930367226632274 0.5163892847328089
H -2.19046060185663 -3.171581608716431 1.5767707344869217
H -1.9713879188726136 -3.882770970642113 -0.06047578940209042
H -3.6767930173990457 -1.9393948816847426 0.06437756308029392
H -2.6713862054783153 0.009629934876550502 -0.9288011027979087
H -0.2599188146683143 -0.4869330143834201 -1.7240066697545686
H 0.038164525650502025 -2.700169073454505 -0.9885058810656371
H 2.3282745788473993 -2.1990780938432515 -0.4276165321933
H 3.664721894208037 -0.6937673765695862 1.8885348809186389
H 3.530350489263017 0.8724464151043537 0.9274879836808052
H 3.9677461032340444 -0.6467358336883468 0.11521884740097474
H 1.2230942172284656 1.2677428727209443 1.6674669611401318
H -1.1406284396557875 1.3205295398425474 -2.2073804876603558
H -2.2600083437434644 2.3475037520711006 -1.1702329832020173
H -0.8214737773708095 3.032211114950684 -1.9206694908716333
H 1.283373772978439 2.9609546249017 0.4939500549712496
H -0.12187070211962621 2.7976963645766193 1.584515104780967
H -0.21986179982663667 3.8834280098801295 0.1422620666761504
