25

C 1.5325932349759737 -1.8160031479477428 -0.4926116084160445
C 1.2855713211335822 -0.332475659685994 -0.7684713100474175
C -0.13985995288095793 -0.04823842321149678 -0.5480291927009067
C -0.5962070055705023 0.8091629206656484 0.35234184756200987
C -2.0356022255904755 1.0887155895450829 0.5668615205192944
C -2.6900094515175605 0.09419396543167512 1.4288704060045332
C -3.7036906178619047 -0.40544741291003394 0.7429689704535729
C -3.767106133013366 0.21696166979036957 -0.5692135632939407
C -2.7975523606636763 1.1021120322374864 -0.7039776879623114
C 2.1646619910715676 0.459913499526748 0.1432968277314553
C 3.6181076514634176 0.12245745263771919 -0.11430119216675821
H 2.226166848225404 -2.2353797096958585 -1.2491751811654537
H 1.9080566828849657 -1.9633725570731788 0.5469214858276525
H 1.5958913675134712 -0.14584390462954752 -1.8152044330007042
H -0.8998003247535574 -0.5596375079644739 -1.1482711061594988
H 0.12258516828922421 1.3328685414458523 0.9633812900300716
H -2.370239550039735 -0.15280480884765427 2.4308722795716826
H -4.37538556680093 -1.1645430669692107 1.1195582371727906
H -4.4908869617076315 0.024009634665858523 -1.3770082331608702
H -2.539322260044499 1.7461607670320387 -1.5327091417220333
H 1.90912379130913 0.20106662457065255 1.1873345591804687
H 2.0452377041215373 1.5449528648380924 0.024166035363608052
H 3.7409044497031925 -0.9221866460274688 -0.47686513439050227
H 4.179394956503893 0.16642559742341348 0.8507256402261555
H 4.077367243249351 0.836931685151989 -0.8212376918866606
