17

C 2.417747337778564 0.6906314601357576 -0.1629437578328997
C 0.9876071468793947 0.8350541727673396 0.21839348742690695
C 0.24816800044657147 -0.2746696639251124 0.3826729777328672
C 0.8618137507408387 -1.6166120452516632 0.1835097862627671
C -1.1739826471566923 -0.2360409693570304 0.7554421937705917
C -2.0656822020776704 0.3726314884025316 -0.34935526578549003
C -1.899459199223795 1.0329912862061423 0.9739543661660076
H 2.8662712383229714 1.7042044023911394 -0.22950572248264303
H 2.924163348403597 0.11844800909766494 0.6637772399595933
H 0.535774442510131 1.8082825208282218 0.3646410849681411
H 0.4187994436885914 -2.3754794500164644 0.8908676766648249
H 0.6242748869579625 -2.0171337133457183 -0.8425923140788288
H 1.9393179487642218 -1.6369599750728778 0.3313403072226418
H -1.5397902207649572 -1.1419367811422583 1.2722423794085764
H -2.961572515468598 -0.2464854974544733 -0.5768918104076579
H -2.7853724238819724 0.9693507570986338 1.6384310514459597
H -1.398078335919142 2.0137239986381785 0.9898857930307636
