24

C 3.8723440893687666 1.2918605543959631 0.22226643313488162
C 2.6294517551651166 0.520090297204863 0.420635485108797
C 2.372693678363475 -0.596805594895743 -0.23372180238294452
C 3.3864802491211905 -1.0799839647884997 -1.2035726353268703
C 1.1789316295782113 -1.3498904462546584 -0.05181592451776246
C 0.06554018262541303 -0.777920358090508 -0.493753437723124
C -0.970627892785342 -0.09608503954575764 -0.880852946311932
C -1.5755767662860798 0.7824778147880708 0.09426160322159387
C -3.071068942390703 0.9208226950441049 -0.15153364365292213
C -3.7853074705029948 -0.3875541934504693 -0.06899129628203049
H 4.731828462299829 0.5807341874671182 0.19813654643033254
H 4.0367789617197065 1.95798942634249 1.100322063862705
H 1.89139725259609 0.8817019724130407 1.133861215939113
H 3.8716458457375467 -2.008420545024941 -0.8964594255107888
H 3.0279831548175187 -1.0644661012149954 -2.2482098565052233
H 0.9977853929059598 -2.2932155221149717 0.374915775540859
H -1.2688766805661413 -0.2507442407897196 -1.874582010396127
H -1.1284974889243058 1.7957220910805358 0.003912972385872525
H -1.4608390801196698 0.481726684305179 1.146140730170483
H -3.5310219181377196 1.6109942893004452 0.5998205572615671
H -3.272054114608749 1.3720453330346365 -1.1457968720807272
H -4.6852712716457 -0.4290823738142218 -0.7211913689477212
H -4.1659467774873375 -0.6062643081339018 0.9701676332541829
H -3.1477722508436194 -1.2557326572579484 -0.33665423216697304
