19

C -2.0178898122359983 -1.6779612349663475 0.23615974592651323
C -0.8938292641225201 -0.7390804792826462 -0.11957108926124632
C 0.3949699419935823 -1.3095998828597153 -0.33944279877505223
C 1.3995211626873147 -0.7202012672684137 0.2911969555338205
C 2.323054028822206 -0.02914038747713893 0.8851891478400541
C 2.882348212218967 1.0909132788959728 0.11582760340923205
C -1.1397530827689675 0.5575021424237456 -0.21319667869665468
C -2.5089426816385423 1.0817908375814094 0.02970781202488835
H -1.647875706077761 -2.4027553929120766 1.0186128252308277
H -2.239908943281007 -2.2872989103015082 -0.6787885521660144
H 0.7054525084274124 -2.128505698047939 -0.9223803998115448
H 2.5683435783912008 -0.35612989079170737 1.8686816492308063
H 3.016723786533016 0.7571838988212151 -0.9322862850970368
H 2.2009765618516 1.9585798241560337 0.18453037284150167
H 3.8826810098656264 1.3696879517029892 0.5129531698102074
H -0.33678531194279193 1.2282214172432873 -0.46729814669655195
H -2.6243420888529494 2.1030081778241634 -0.3626688936955666
H -3.282566877875127 0.4610162600278947 -0.4715137683183599
H -2.682177021995648 1.042769355231108 1.1246097708625642
