19

C 3.7661906193202688 1.2484800891584689 -0.3203112120592323
C 2.394686637678937 0.7478079948270367 -0.6106945953169098
C 1.9264708568405073 -0.32471289895489713 -0.0029459546847413524
C 0.5592582109931885 -0.8375888643384805 -0.2816286418490363
C -0.24997984065792828 -0.8449693268129596 0.9289285918548673
C -1.5553521102177366 -0.8850109138446941 0.7547050853442299
C -2.835811595150652 -0.8111412047307601 0.4666957570860526
C -3.3830557344182193 0.5247069609735214 0.30570257778278437
H 3.768076644900153 2.2338215829542496 0.1730018578983379
H 4.36449859079362 0.5397322868075181 0.27771623029358383
H 1.8202531635336487 1.3088945755484345 -1.3366313970591293
H 2.554345128514866 -0.8448978911993702 0.7175585875154318
H 0.14506192871518583 -0.27017806504603287 -1.114788527323665
H 0.6516213213434975 -1.9018368820790585 -0.6322247310189343
H 0.028552746073113335 -0.822112367641642 1.944936083131454
H -3.293137687604833 -1.7558668673062343 0.3906810775265054
H -4.473761244723262 0.5065745884048041 0.5227929819369562
H -3.263057974237668 0.9704658929132236 -0.6969287137951011
H -2.924859661696723 1.2178313103669482 1.0335423810775102
