10

C 1.5071670138701616 0.17331028912877816 0.29715400935282005
C 0.18360368170078678 -0.3309975556539157 -0.22847064318474683
C -0.9235215271538569 -0.3117331248420552 0.7809459656291706
C -0.9799532041418001 0.6506973971223035 -0.32366231458774897
H 2.3618856024459185 -0.11197971956719231 -0.3172701054018369
H 1.6361630445500792 0.017680666636068643 1.3794227984725518
H 0.21347539173987884 -1.1041408557561263 -0.9990332141586119
H -1.6047872697756527 -1.19112971855667 0.7198431441824275
H -0.6474653625189257 1.700855078815282 -0.21840006077251944
H -1.7465673707165874 0.5074375426735258 -1.090529579531506
