20

C -4.8022608714500095 0.48306203453141683 -0.19473658279321615
C -3.6041841591373323 1.208227458313733 -0.6111929754210815
C -2.4478368514367204 1.2005352878918687 0.0018146645937453028
C -1.591661071946213 1.1142990620730533 0.9807609961403729
C -0.7211121727400598 -0.019749266742934698 0.8351084759334743
C -0.08970444476955189 -0.28449716732388486 -0.2914604835541189
C 0.7690808714954313 -1.4509541585400643 -0.34778006427804353
C 2.06916537496475 -1.339306908124386 -0.2943335760791853
C 3.315185784683695 -1.0592569812802244 -0.2599710880955435
C 4.566836813931315 -0.7864203462815893 -0.14033960033290588
C 5.652702467919953 -0.11899660468541974 0.16880819307693606
H -5.0460442070428995 0.5719138117891688 0.8723981985594459
H -4.71783570547505 -0.5656771023226059 -0.547200308812534
H -3.6067978119734465 1.796270730235817 -1.4552814915437473
H -1.4940688754430944 1.7519301437140806 1.8069400495662005
H -0.5404488908964155 -0.7254813042463337 1.6658195315751076
H -0.23714591960546147 0.37794801882896906 -1.1276745473871397
H 0.3108828120820079 -2.4404949968250587 -0.4368224533884846
H 6.00368211867633 0.7330739921185706 -0.40114872313142513
H 6.211564738162869 -0.44642570312421964 1.0342244513702086
