22

C -2.328382917644138 1.7059471606941177 0.2006944114042837
C -1.0178756082069087 1.0302713363316542 0.07121848029527636
C 0.1315130320034301 1.7266905008486102 -0.11983674763169434
C 1.1855838820029634 0.7473299066928648 -0.19776700473085354
C 2.4652923913410274 0.8758319072228027 -0.37169379068320174
C 3.7206457755808744 1.251483128312846 -0.3405514608745338
C 0.6118687711417286 -0.5319651940123772 -0.04625177857689227
C 1.254882556155959 -1.8668252223811035 -0.04913145093707223
C -0.7260488271020595 -0.39304839280471626 0.11894569228583012
C -1.6866553656870473 -1.4484423240144235 0.3058778848818168
C -2.97295387437161 -1.3325610679683857 0.4654566349124433
H -2.835821462815931 1.6298275308633077 -0.780962660723191
H -2.2250325312894423 2.7629390290628737 0.44457554423665496
H 0.24554824164420183 2.7906154133152667 -0.19859639775475518
H 4.113525646676148 1.3198899759276705 -1.2912657065597224
H 4.228532379048446 1.450405165237399 0.5595009554914276
H 0.8549887923318882 -2.4731144176444215 -0.8893748783474651
H 1.0159764674079845 -2.402101118334263 0.8914622467041198
H 2.335443719996279 -1.8085969889460367 -0.15927855881177277
H -1.2987411995483715 -2.482729711184476 0.3170387527930073
H -3.4391895725677966 -0.37502643426324855 0.4689800851447726
H -3.6331002960976844 -2.1768201829560256 0.6009597474814529
