14

C -1.475246774995021 -0.9302455043358347 -0.09676870145928396
C -0.7051945964769037 0.06857999846159359 0.7262570427553016
C 0.3853400416384266 0.7132366783836719 -0.03293401151362629
C 0.3773497722034176 2.0095179057209704 -0.18647160114454508
C 1.477918988257476 -0.040750959179949135 -0.6222903930927827
C 1.5960833409836102 -1.3503051744776142 -0.5358637707836574
H -2.0404388081296108 -0.4941312337020597 -0.9134448406566225
H -1.9942309963070957 -1.6681333864480916 0.508638852598585
H -1.4306635065153297 0.8311374403118705 1.0718430351561936
H -0.3030829165317067 -0.43891020406088244 1.6266161835204376
H -0.42636339298369486 2.580953722332925 0.24506924503679006
H 1.1546020580055278 2.514914588942793 -0.7332084440664914
H 2.4602047913802805 -1.7904697722153704 -1.0210908787352584
H 0.9237219994706459 -2.0053940997340463 -0.03635171761502768
