17

C 2.974354865454932 -0.3893624420424249 -0.9160436246572686
C 2.211884486691747 -1.1267096628605358 0.08431035984561774
C 1.2394464261996319 -0.45728980545564024 0.6621774166370213
C 0.22575242114032926 0.22887558992366808 1.107686956375076
C -0.9776633942984463 0.15717797004646658 0.4008195545806516
C -1.7180091146966967 -1.0991389924179678 0.334765753979361
C -1.3650283145090771 1.2623791809832632 -0.16560481287192486
C -2.110201996326192 2.2931704790334067 -0.4558461892500623
H 3.6139790591233396 -1.0993852075511532 -1.4663864210436635
H 3.5323645458173405 0.48808978427897515 -0.5159830275088024
H 2.311869303271367 -2.121383380901019 0.42454062853923097
H 0.46795796088571096 0.7825258002412845 1.9991108446968475
H -2.419952676340825 -1.1190560233767555 -0.534702944186931
H -2.252235892793944 -1.2671828221244135 1.2954231778372762
H -0.968217472106276 -1.9288774701768936 0.2292948318444429
H -2.7530738077067123 2.823542441602196 0.1882791270000653
H -2.013226399806646 2.572624560797605 -1.4562891786644976
