27

C -1.7506868798928052 2.875651752944134 -0.12016166684202267
C -1.779998305959735 1.3546257011304075 0.01414808466945663
C -1.0756163788108895 0.8032761469352675 -1.1518329063367876
C -0.4227809353388353 -0.3384779650827144 -0.9793831135728611
C 0.1465554814049077 -1.4198654490781908 -0.5398706547470306
C 1.410146552942392 -1.3683048074996798 0.140520279385855
C 1.9565529384110674 -2.480595311241408 0.5713041033439651
C 2.156585164754704 -0.09549807151252361 0.3928404346026992
C 3.5983917150995377 -0.2793661240902838 0.08656297970056563
C 4.540670635838398 0.5269998798873975 0.5198985479426742
C -3.221420281889218 0.9455448477452741 0.09346998251456061
C -3.4199824746019014 -0.5317983561390873 0.2290438601181617
H -1.8973452562399884 3.1586910401149506 -1.1836487333187533
H -0.7046531662582693 3.1739237264981703 0.13406861709809736
H -1.2946095655076997 1.1304550353162903 0.9841450257929257
H -0.3449465950577655 -2.348431126272806 -0.6906036106371034
H 2.8964859952130957 -2.493516005871076 1.0835950601590216
H 1.4583097052314078 -3.4236435701010715 0.41407021945221395
H 2.067635979103252 0.15057070204103867 1.4763691300562036
H 3.878352796038738 -1.1268018535981752 -0.5279269990285846
H 5.590254813446865 0.39627063066963103 0.2990713757610539
H 4.284334353652627 1.388726081860704 1.141179076133693
H -3.826894010464372 1.3072435581970239 -0.7525212515554189
H -3.643786939627841 1.4208293537514702 1.0110170084396397
H -3.4019417717519618 -1.0537169205185848 -0.7519905062797785
H -2.742904924423939 -0.9884248064939277 0.9724454527687127
H -4.456708645311685 -0.6843680895923699 0.6343035533211833
