22

C 3.0810718765368703 0.25103922602590767 -0.10493661055628159
C 1.6479636410123997 0.748867619866393 0.051823412373387466
C 0.747518029021 -0.4362359885689069 -0.12881171532247837
C -0.7060486403856723 -0.11448885771245355 -0.003964747179507457
C -1.4666426589094774 -1.4269297245786945 -0.21457711809630295
C -1.1073653677933497 0.44643838301591676 1.3135679851172082
C -1.183975801464704 0.8220229899298854 -1.1015107251693372
H 3.5624021694960812 0.06310690530843248 0.877671571080835
H 3.1192917573680905 -0.7051609659563373 -0.6658609032650057
H 1.567568941325185 1.1259971069766437 1.0895752786092958
H 1.387676955707903 1.52433270391144 -0.6760554888407961
H 0.9891397971251 -1.2361297384645877 0.588941462619528
H 0.9119948132655168 -0.8443826789681717 -1.1530933836322337
H -2.5456590568117714 -1.276493514313222 -0.22408182667349377
H -1.1217526711519836 -2.0979656934993125 0.6056219221886489
H -1.0697331594507098 -1.8330856091829006 -1.1826508207873967
H -1.6685431366717276 1.4179842023700224 1.1941836689847052
H -1.840261070783333 -0.21835002687160476 1.8578152120946645
H -0.2823822942321222 0.6634487714027072 2.0044537855784665
H -0.7504663560922485 1.8339095760178339 -1.0138772253326271
H -0.9902147116689537 0.39052333381077786 -2.1086274070549944
H -2.2815830554420584 0.9015519794802349 -1.005606326736299
