29

C -2.034079129592426 -4.009471748011202 -0.24704348641500196
C -1.1550912086682927 -2.823662871732095 0.11082140005031074
C -1.5824850291188006 -1.6471147869750347 -0.24536918186023973
C -0.971406072971595 -0.36294980628442713 -0.048676734125759465
C -1.5119093059049673 0.7991407502859841 -0.43771473877096845
C -0.9247151327072298 2.0981122730888377 -0.22645754977735308
C -1.5662871109615568 3.3171944471554813 -0.7095293945807835
C -2.686363646276646 3.3597630091870005 -1.352184779785865
C 0.25050045752253514 2.178413469400046 0.4353835495185305
C 0.8844317414705258 1.0067229301711016 0.9255662086877313
C 2.250897902855809 0.8898641243212833 1.262960283408767
C 2.6606663484340367 -0.34625100800156916 0.9196789302201221
C 3.99236850553943 -0.9550817812746507 1.0639546674051876
C 1.495998253447468 -1.0475580137996456 0.3521644649330325
C 0.4336504142602071 -0.26046542687891416 0.36543182332196616
H -1.8903924170763375 -4.819173706317172 0.47062593038429607
H -3.0908271452418252 -3.6622560882623123 -0.1298298444497036
H -0.2704387953212085 -3.0587518418864135 0.650965100017565
H -2.5675344190194798 -1.5905640790492777 -0.7914321699899569
H -2.4765897466531848 0.7120932901527207 -0.9535013752773823
H -1.0676331040196185 4.28337303679038 -0.5182411897144459
H -3.235283359126884 2.461159102744395 -1.5786639469158885
H -3.1388001179024654 4.276953493653518 -1.6983833433480306
H 0.6735681493497196 3.164148155871519 0.5687701950343813
H 2.984620677010045 1.5666939478556934 1.7178413263548746
H 3.8605707058852046 -2.0219394645188564 1.4099591658328094
H 4.538517397060315 -1.0434810037559814 0.0846914610837611
H 4.6411338432041465 -0.4131074695649508 1.760865792777602
H 1.5029113445225855 -2.0518029343662363 -0.04590462488217594
