24

C 3.9730011336372084 0.4027094683291254 -1.0689941108615681
C 3.270773634149623 -0.8484372445869531 -0.7402071190696827
C 2.519010367131688 -0.8743934428633675 0.3245055061695395
C 1.4927098595175923 -0.7591967684635157 1.156468977231656
C 0.20527866033088474 -0.23195964761243323 0.6878551446593292
C -0.6972766752151393 -1.3266490263241009 0.11918562775839762
C -2.03816782228273 -0.7060455981418242 0.0042700862719702
C -3.0703270375160168 -1.3801008587983397 0.4755575915862105
C -2.187642399809444 0.604222762926344 -0.6116936732923308
C -1.0365877966571424 1.5363014110289315 -0.4198348564190419
C 0.299039158238648 0.8426460427003425 -0.333684289613623
H 4.845753567472307 0.4823671377326916 -0.35726113399558534
H 3.365910644088557 1.3132106388731442 -0.8687794813796864
H 3.3504325540998545 -1.7291360650981478 -1.3393881114935298
H -0.3233644686561536 0.187107674792726 1.579167981527568
H -0.677838247501931 -2.209814702001291 0.7727248217115125
H -2.9899863927431443 -2.355999934731114 0.9386407738151322
H -4.083833566478881 -0.972308429515643 0.41847932645024344
H -3.106825911579934 1.1290936325121068 -0.2191551044802168
H -2.3780176950055174 0.5157464455515665 -1.716328209549586
H -1.1820765624855605 2.079471490325104 0.5347699909535802
H -1.0794424187274942 2.298904981663774 -1.2231458968254032
H 0.47324105822291024 0.3828879826282896 -1.3492736108685957
H 1.0562363577698806 1.6193720490726196 -0.12536482526609344
