12

C -1.6303881221696308 -1.0350563612171786 0.17343354290992968
C -0.9054208978904337 0.08274527561099031 -0.5278704514030127
C -0.44855835424898705 1.2651679731076062 0.21955976508622738
C 0.4895215834981978 0.28324843821897133 -0.051192355689663425
C 1.9138796416361807 -0.09984757092212758 0.12428921292208193
H -2.3730673894201866 -1.5309499336629302 -0.478064887185279
H -2.0478843055096982 -0.7364861044095826 1.1545612984027658
H -1.0698786581119748 0.16352482824603604 -1.6428772211766873
H -0.7109790665298531 2.2162673119571186 0.6534540940381478
H 2.1138424509069953 -0.9109313921561176 -0.6111366367477349
H 2.14143755638867 -0.49301597259554664 1.1277337279000426
H 2.5274955614507406 0.7953335078227161 -0.14189008905674397
