14

C -1.7082011023817316 1.2140167681349956 0.40062524876123723
C -1.1271782302717976 -0.14680605398961072 0.22569492123236082
C -1.9539133496524173 -1.1589914632007683 0.11325695024139436
C 0.3086847627128858 -0.33697198194101535 0.18222861398348988
C 1.1569135726661288 0.6793366732496909 0.29486086989998317
C 2.6167627148559918 0.4163883775119552 0.2421393948738696
H -1.5853210325624476 1.740309998902241 -0.5854653492787453
H -2.762994862861654 1.1568419973906519 0.7090319336309298
H -3.0069227377397603 -1.0490132865565738 0.14151719531923218
H -1.5497005577242036 -2.1598661718390946 -0.01506874701946234
H 0.6807846990739186 -1.3435533418677044 0.053643555342180356
H 2.8090655522534353 -0.4487512367092285 0.9161760764942856
H 3.1739305233615474 1.2689650521059919 0.6793768609468629
H 2.948090048270162 0.16809466880854632 -0.774904885440862
