17

C -0.26670825914922397 -1.8160120818748493 -0.023438235946745174
C -0.22772592002344075 -0.3784439670609798 -0.39209097943171367
C -1.417757655836669 0.21737140007915742 -0.9339674695141092
C -2.2372679095285255 0.7587671780582458 -0.06257296839767165
C -3.010629761575574 1.2680845429816379 0.8686335860660489
C 0.904830816559707 0.2566611495282186 -0.19519257960457154
C 2.0842854515326033 -0.3897215528267875 0.3566671443042137
C 3.2013668677499525 0.2563567882744257 0.545661298373949
H 0.11840092853700271 -2.0080757936757916 0.9924994079191601
H -1.2425381938395403 -2.2892929929234334 -0.22914436307682332
H -1.740262923586265 0.2885729898024874 -1.9379458390766997
H -3.731497487738347 0.5887080310140416 1.2662508374539203
H -2.8143859605652533 2.278348485202329 1.097980576361036
H 0.9708283487172631 1.3031878206782337 -0.45142248186606737
H 2.0474164048784114 -1.4336885481657218 0.6216372400540585
H 3.272059338929567 1.302867672896678 0.29093532226129226
H 4.089585914938344 -0.20369112198788658 0.9541429170337856
