16

C -1.676838155907532 -1.4908527733521886 0.17493289688737518
C -1.161470633325352 -0.1309447315885285 0.6018328594833874
C -1.5798980066972643 0.944961949917836 -0.3589012900349791
C 0.2911353085977098 -0.11036634523945371 0.8262449266173884
C 1.205673952535736 0.17570967592425743 -0.0765500606090868
C 2.6221824339800555 0.14215367145305746 0.34723153585086425
H -1.2163276702910168 -1.8661729936812972 -0.7384176377429109
H -1.6695073350224712 -2.2021328641051063 1.0256890038922553
H -1.6425157289969465 0.07075525678292494 1.6032226801349796
H -2.38753599050882 1.5605464981929114 0.08390147029095778
H -1.9070638178770865 0.5167796485877939 -1.3170904408368436
H -0.7050247385855364 1.6275177215117322 -0.570687799725653
H 0.9192258675090428 0.42259308774374493 -1.079989273708245
H 2.825661160227579 -0.8890839395188704 0.7251550795291111
H 2.7995629879167185 0.8055103089856718 1.2411591887788316
H 3.2827403664452084 0.4230258283853863 -0.49861649805616165
