18

C -2.6352034239682793 1.0858895596117215 -0.6637965515187954
C -2.1856345526184566 -0.2604230591477648 -1.0131530112393101
C -1.5679188113110987 -0.911463622865554 -0.06253361600516776
C -0.8709491139897292 -1.4674313631418785 0.9149056073048786
C 0.5520933543541251 -1.1780407644843702 0.9161785776496422
C 0.8384846690361639 0.184642246810427 0.3261399805715175
C 2.295722432301375 0.44995969489127974 0.34146208381520926
C 2.931488016412174 1.1615722531221764 -0.5665245788005888
H -1.786330166154612 1.7910609831231417 -0.7219103926659687
H -3.052524830605809 1.0704065160998861 0.3547815127843531
H -2.2797472946579673 -0.7948357554663323 -1.9189440280462262
H -1.4631571715450946 -2.0506361317844526 1.5644511268009451
H 1.0569012726834084 -1.9174612907181277 0.23714084670864266
H 0.9377408465325671 -1.2771746979440244 1.947406592503089
H 0.455431776973174 0.2190622446464749 -0.699016911462575
H 0.3339065328974691 0.9858803484958509 0.9085108714902774
H 3.994332279010706 1.289979735329393 -0.4553803134678392
H 2.4453641846501077 1.6190131034223378 -1.4097177964221024
