18

C 2.6047562868565555 -0.07697853183904425 1.959996194693751
C 2.0666444392738157 0.829307718252673 0.8443527486858989
C 1.9097446094247947 -0.007950901208375693 -0.3465483020712229
C 0.7756559909866545 -0.5703183483551705 -0.6862274839574374
C -0.5113091756475547 -0.7242316546266778 -0.9111484806861959
C -1.2955530376190147 0.257564753973093 -1.6651297872544595
C -2.6335856273297584 0.4542438656414948 -1.0339294729340365
C -2.875911211523429 0.02874129665742104 0.19998690192557284
H 1.7912257063744725 -0.49073481223005516 2.572993530443215
H 3.274322189677447 -0.8498996952946891 1.5412185487131582
H 1.115063682177819 1.2987073327798428 1.16445528076177
H 2.8529666322731155 1.6083683182396344 0.6869860562638105
H 2.675605784706973 -0.21876019426085236 -1.0127099365879575
H -0.8858599213475321 -1.5953512699667016 -0.4990724900183798
H -1.5121629639704817 -0.2077224135689917 -2.672290284990863
H -3.453159677819258 0.9488873164856392 -1.5558004671808394
H -2.0642345362411145 -0.4703432860206554 0.7391758328577782
H -3.8342091702533816 0.16069653472108789 0.6736916113365696
