17

C -1.3284066285986798 -1.674021936552389 1.6978415953133632
C -1.5063338380303688 -0.3662945376512811 1.0278079791909667
C -0.710565704248362 0.018187600644006253 0.051615101878453966
C -0.8977022955442054 1.3100625204893863 -0.5998397412855875
C -0.11277152376828174 1.7179684152735992 -1.5810144032838014
C 0.34735292939172774 -0.8383851073910048 -0.3744419305946061
C 1.5708648593566659 -0.4242187990416493 -0.14906052083833157
C 2.759158688383983 0.06790779442500765 0.11556606030829182
H -2.2978707125165627 -2.0762365434249785 2.0713731547906558
H -0.8306440756461411 -2.41670535845803 1.0106702408096488
H -2.3220039742885135 0.2830074894939324 1.363376359857354
H -1.6936994263461922 1.9828852795369638 -0.2973275229392708
H -0.28769041045810745 2.6693507778794383 -2.026665571797115
H 0.7022082738341802 1.062902341762116 -1.9123497659287692
H 0.29451786458602464 -1.782862342773317 -0.857841137551312
H 3.147459372579087 -0.20372666887037916 1.0590767096904568
H 3.1661266013136857 0.6701790746584959 -0.6514243467764276
