12

C 1.350768905310152 -0.9538748202804652 0.36860961218132954
C 0.48808381265777834 0.11473270033878358 -0.26963030924940073
C -0.7150430664566493 -0.36277006817997404 -0.9231342659693061
C -1.4886108870920325 0.21575107007543468 -0.08790068423255841
C -0.40963393809980003 0.7755746245350363 0.6847325915277015
H 2.1897174818684 -0.43923581451020094 0.8730475322225996
H 1.689975860553089 -1.7194828877109212 -0.3685441443087555
H 1.0688085839656625 0.8345099314722934 -0.9034767612021839
H -0.977789914052231 -0.9888046946805723 -1.805532957807226
H -2.58179131651326 0.2649632229201011 0.003158035306714781
H -0.2736457317576658 0.35568818922209927 1.7245595213033318
H -0.3408397903834166 1.9029485467983958 0.704111830227755
