16

C -1.737277044354398 -0.5494658379182616 0.6227570704837747
C -1.048588372219184 -0.42792958917123197 -0.7103026238148598
C 0.31722643906056097 0.21507608246492826 -0.4279259370454157
C 0.019262492800813973 1.5607280720201382 0.20135344226674287
C 1.0405786368048602 -0.6855224062878224 0.46817197238259434
C 2.2747072353347826 -1.1024717982662948 0.33763003637349565
H -2.1977272381594863 -1.514063302060495 0.8123583405729453
H -2.3223459486900744 0.33144416886742917 0.9006682580724291
H -1.6062256441602976 0.217134402385785 -1.4172945885102834
H -0.8879517840545292 -1.4414636494494504 -1.0962786504823372
H 0.7948227335404945 0.39836682349664465 -1.3920650005451825
H -0.6449690566822076 2.123298092330417 -0.4816611860596271
H 0.9448934153015397 2.1331601218403202 0.3937679231462397
H -0.5612635267043009 1.370159935668024 1.1320916093787257
H 2.6561387812002826 -1.7790308863562665 1.1090516230613214
H 2.9587188809811296 -0.8494202295638904 -0.4523222892805785
