20

C 5.202716056829512 1.030403825985467 -0.07445703660723246
C 4.126849855041243 0.45377947830260057 0.713403681703331
C 2.9030881019031574 0.8652808389731055 0.5005421295890078
C 1.7006449619379393 0.884622655093402 0.05256666233438177
C 0.46744365134962035 0.792080664613027 -0.35729385029720123
C -0.8047689070969057 0.5837369268702286 -0.5309317860672311
C -1.2923652797143819 -0.7700831351911122 -0.8895264755662589
C -2.677925054361602 -0.7544063961141768 -1.4667471671931296
C -3.6069690895056326 -0.168641098378362 -0.43885538795867846
C -3.755758392885175 -0.7548725410222916 0.7369810660110598
H 5.970988001817242 0.3509543817274236 -0.43342095166710126
H 5.488261117081809 2.0457565077633566 0.13694906521032219
H 4.35526887210527 -0.3078312153383738 1.4646434243267095
H -1.5262118459839378 1.3690358296124194 -0.4222974535749377
H -1.1917046808309795 -1.4287596672688583 -0.011810641290785092
H -0.5866536572130027 -1.1589043950364055 -1.668778079736316
H -2.9973791744828833 -1.8116189288516016 -1.5831996441514333
H -4.1354194627908845 0.736751078506556 -0.7050507022536612
H -4.423471893028755 -0.312790369330772 1.4443827057000027
H -3.2166331801718773 -1.6444944409156286 0.9578846464677979
