16

C -1.4151074564303232 -1.512358916160133 0.22442967480830314
C -1.0032099882967371 -0.14682053106944679 -0.22066763477320667
C -1.9166975552414434 0.6001990292550621 -0.8013918655411667
C 0.35039660830238883 0.30949411836402 -0.00877111091173132
C 0.778360111341392 1.598891673610663 -0.4193586966989038
C 1.2696783629268498 -0.4136433201949708 0.5638363365430062
C 2.072148849944577 -1.4035989463544576 0.8419279780960267
H -0.6084944025369321 -2.0526067585745684 0.7406687598194854
H -2.3179318817796184 -1.3683920586633427 0.8588616932263248
H -2.9124359654319063 0.2448494473738296 -0.9486790346849079
H -1.61706042477244 1.5923192866571207 -1.1247446233886544
H 1.7187105688292312 2.0026869913536007 -0.010939052487241195
H 0.8696257959060605 1.7311219393872748 -1.539287709537546
H -0.007594064528102099 2.3622748306001813 -0.13755685379976335
H 2.5628498595609686 -2.007606086157067 0.12419350402428711
H 2.176761582206008 -1.5368106994278898 1.857478635305296
