22

C 3.1959033049082164 1.0416338644442962 0.44487754439485544
C 2.0563643271911194 1.3712502233018693 -0.43781879350887626
C 1.236606117120392 0.4326218429005011 -0.863774514220365
C 1.461107531260154 -0.9624344713656467 -0.45338790404581725
C 0.2492484177884646 -1.4886244526135592 0.310744526466877
C -0.9121652153145 -1.4161881856703042 -0.5657764626579194
C -1.6137879559895028 -0.29666512714058735 -0.5214996983622743
C -2.284176693048781 0.8011768380001197 -0.3127787239267568
C -3.2985236114644727 0.7468219304710629 0.7560759702360339
H 2.9067315832661587 0.5308466086550744 1.3613544341334567
H 4.015967209076337 0.535744561425924 -0.0635438724544953
H 1.9046434205334504 2.3920153020401775 -0.7290249676702482
H 0.4192623242327196 0.6886309644541697 -1.5008190683076512
H 2.352009172163291 -1.0535279524442827 0.20233492989982355
H 1.6516814181888066 -1.5574875211373336 -1.3611812430906405
H 0.1506794188608091 -0.9105612402443916 1.2464447178110891
H 0.4569747086785466 -2.5445960143817437 0.6417398813522068
H -1.305488065722737 -2.1176882352730497 -1.2472766636103791
H -2.013181522509651 1.5987645634744938 -0.9397466334766668
H -3.7299633791467346 -0.27420995371629253 0.8292679802132397
H -2.7946374296017433 1.009004004732893 1.7095597912394789
H -4.1052550804700925 1.4734724500865148 0.5126646324490286
