18

C 2.4783556488453558 1.6244545962214891 0.4023013429221472
C 2.0615280820949904 0.7379563108415039 -0.7312690898506741
C 1.2885332557484197 -0.3185651551523412 -0.5321687812121274
C 0.8371776144522035 -0.6138000238773087 0.8445055520949915
C -0.29293278866445704 0.23747407639375093 1.2849582683008736
C -1.5163997164815148 0.11169200578425992 0.863032420790525
C -1.8902407730166082 -0.9222688036652626 -0.12017577488314324
C -3.126162712804288 -1.039151454269203 -0.5375953322819735
H 3.606130017394165 1.6585801229100248 0.3464016445488341
H 2.250634472925281 1.1786831965825637 1.3790389244565138
H 2.405262575149138 0.9756629463030199 -1.7286142086861023
H 1.0211456616715715 -0.9208546668500953 -1.3917390693278184
H 1.6261067840041667 -0.7498629855952501 1.5771089735034352
H -0.058513679744098455 1.0065718036092672 2.005215537725863
H -2.289575065627158 0.7625315031780837 1.2230221919003779
H -1.1174588143299196 -1.567324588603676 -0.47528468317007205
H -3.905211602135651 -0.3718400643267729 -0.16481225797157537
H -3.378378959494555 -1.7899388194489412 -1.246633552875816
