14

C 2.8494200507624563 -0.1725401491223693 -0.630964233075671
C 2.088552345300869 0.8085287418844509 0.141889381406702
C 0.9848613363792154 0.37443661651120796 0.6909570697426235
C -0.17276226014711676 -0.11916733974100166 1.1012140869397615
C -1.2677907731366123 -0.0002173430560457253 0.1934954993704564
C -1.9915430979866793 0.6949612100125984 -0.6621226112571745
C -2.43908531137927 -0.6967900013429251 -0.43579323791392277
H 2.2823501256071763 -0.6332780245901709 -1.4416786867257152
H 3.2197853639520813 -0.9517497938681639 0.041156741693390335
H 2.2915754159661668 1.8263681143133634 0.32797337681066907
H -0.1169270423803853 -0.5401398395851874 2.062192242163589
H -2.1197160915999618 1.6473776633240282 -1.157548505872099
H -2.243600432215421 -1.468474656239975 -1.200734177818192
H -3.365119629122632 -0.7693151984998949 0.19531651922971885
