29

C 4.580672541704554 0.6982854902919439 1.7418665068528114
C 3.222494990145807 0.195144881926076 1.4159397960820934
C 2.724684707708307 0.28369550514494674 0.1972177142903887
C 1.3754476047794026 -0.214279888790254 -0.13399296369858768
C 0.9304082934794687 -0.10028032030496678 -1.3636249127117555
C -0.38747171321296997 -0.5667127924712371 -1.773325955505689
C -1.217024654588252 -1.2037102316959933 -0.7776479507983055
C -2.3047666418774946 -0.5350129374784217 -0.4464872748454422
C -3.3295878159704366 0.186332799706561 -0.04017909179285464
C -3.0555665466236857 1.067276310406854 1.0376110470585271
C -2.8646104399943515 2.332177570332739 0.7344285171427037
C -2.6870684470590027 3.5788489027668975 0.3385424515156655
C -1.0210933930296835 -2.4321107353017077 -0.08965059021534344
C 0.030059381684033753 -3.1775313274571557 -0.3520307060289472
H 5.321346228610735 0.04500692898936215 1.2020127190474754
H 4.686311713417185 1.71118662535469 1.3444710366727126
H 2.6671342480011226 -0.24839264389952292 2.2403327341665844
H 3.3350317448739317 0.7360658497092302 -0.5676471276034537
H 0.8105221125294766 -0.6497390191665852 0.6811484864643479
H 1.5626842849135043 0.3570309699517813 -2.105693002008139
H -0.966914130468247 0.2182435364980623 -2.3419323863966834
H -0.1962079256268532 -1.344895271447857 -2.582839612131568
H -4.197172247705994 -0.018082045066116555 -0.5959046862886274
H -2.976732523312084 0.8669829726467649 2.0824273374795554
H -1.685391688539313 3.8222945822656618 0.10442896874837997
H -3.571262627228062 4.156690406461086 0.31095959716507693
H -1.716507849120817 -2.7808268762564037 0.6532293223496408
H 0.7589963412003687 -2.8824283848888155 -1.083275095362678
H 0.17158445130985864 -4.101260858227307 0.16961512035251958
