23

C -0.5202320353710244 -2.8882054172120473 -0.3618228170388657
C -0.7244201383584163 -1.5252141641047485 0.09484910696729204
C 0.38125056211831176 -0.9341047915160118 0.4989317642190865
C 1.4919756056482223 -0.2664798662444188 0.7706654391804044
C 2.109795931848011 0.41368213376378216 -0.34875680155325456
C 3.541214639980767 0.7934154886102244 -0.04629123497122871
C -1.9225186925761648 -0.7186693857610911 0.1763210740836249
C -1.6855472483244098 0.7646311484866962 0.03246727752085585
C -2.9920428244432045 1.502488502744831 0.13217574862628872
H -0.8123813670359745 -3.5853762201417556 0.4591737037034688
H -1.116621219946938 -3.1634778087445254 -1.2537356639397534
H 1.7466231274053519 -0.3448989309562006 1.7851390844514814
H 1.5305263435791954 1.3606806298330163 -0.5494496359577367
H 2.06182339912197 -0.2472006228390028 -1.2443938794489873
H 3.5857169706616894 1.0213254114926473 1.0450099700804578
H 4.235397335291231 -0.03809124857409102 -0.23344975045062985
H 3.775583729174973 1.6866072987941108 -0.6431133302413051
H -2.704970380297173 -1.0086956917811931 -0.5749540938142832
H -1.173551596142637 0.9167622608930472 -0.9398410574271981
H -0.9577357922049512 1.077532007998675 0.8204666866788085
H -3.8517187638366073 0.8258917492249479 0.036887801131222746
H -3.000722779119047 2.110036117347884 1.057957399806869
H -2.997444807173228 2.24736139868525 -0.7142367916065824
