25

C -4.271788469972891 0.3819666526686034 0.004196698977329866
C -2.8807775931019757 1.0045136648465827 -0.14268341638827345
C -2.40171100451181 0.6510149063244495 -1.5269492948305199
C -1.0530925452404816 1.1920257061693436 -1.8162579527071425
C 0.008040312685342912 0.4187565431296817 -1.6439051655211545
C 0.8122626688363607 -0.5765585617172733 -1.3696666527931018
C 1.2407142967527016 -0.736330517235746 0.004727284707565206
C 2.0456041433860332 0.11293108748498637 0.5997639400075297
C 3.0649417390872724 0.7334295198805038 1.10987740778507
C 4.123174122294498 1.4022170271904986 1.4268213611095355
C 5.26426326080802 1.9864437874607084 1.6365901157768667
C 0.7702316714874821 -1.8745877822994623 0.7664129257034261
C -0.0309952907612885 -2.741910489851585 0.21196044866614341
H -4.3002582589609135 -0.6184697154811577 -0.49374423224735337
H -4.517291915591785 0.2016024294997083 1.0683124651221085
H -2.9930907973831897 2.113781121196417 -0.035462157838741064
H -2.233380835098853 0.6573123749014809 0.6600506275700353
H -2.474716738596298 -0.44160644746045613 -1.6572305568054841
H -3.135105643073735 1.119926524492997 -2.2435273115549057
H 1.102593384822901 -1.2159823978907884 -2.1810892915266016
H 5.743565258900174 1.8146840153781727 2.5893920525304064
H 5.769112582719419 2.6269988260187827 0.9374410136663147
H 1.0722088115198625 -2.0183163524767083 1.7889369159838926
H -0.3750368419195225 -3.585898543590114 0.7890549662710726
H -0.3494663190866752 -2.607943378640086 -0.8359973556013136
