18

C -2.482308933396621 0.8036522050785887 0.5575859678009532
C -2.5942428822245542 -0.6079012653447311 0.10204981998964677
C -1.4981576596510209 -1.308286065969274 -0.06291801614064738
C -0.17298542139019138 -0.6938216295702387 0.20306438077076983
C 0.6180492978165019 -0.7335964271011163 -1.0401887789061492
C 1.7549024430882239 -0.09382823037562484 -1.151437708655164
C 2.249362091733759 0.6732712797396958 -0.02421699999234982
C 3.396836675689732 1.3142968685091208 -0.148791383286095
H -2.651826949523989 1.4989075101739722 -0.2707233943060254
H -3.183347033668979 0.9327161013215487 1.406309674848367
H -3.5516030037053987 -1.079384443998783 -0.0988824540211717
H -1.5474740543147212 -2.3322293981427986 -0.3916261983319913
H -0.2935461846747346 0.35406191575871315 0.5996772918542963
H 0.3397307638357001 -1.2868877568313497 1.0163543362646117
H 0.26099545674852886 -1.2940123782385922 -1.8669230159264505
H 1.6843750226848837 0.7204661793747429 0.9109882854322093
H 3.7419602640410736 1.879975164310012 0.7107750191432876
H 3.9292801069152445 1.2526003713091833 -1.0705766453835825
