21

C -2.47561012101566 3.493970879703016 -0.6646414809990963
C -2.7316706751256783 2.4591356002573757 0.36209165105690233
C -2.2150705244477495 1.2549441578307035 0.3103100363815282
C -1.8262742580075049 0.04782056147262054 0.015456966533331328
C -1.370365554423088 -1.0930674559248454 -0.3957123777302204
C -2.3187214897360517 -2.1279032325390035 -0.7646876445605181
C -2.6631386563242803 -3.128377960319267 -0.0030989637872639248
C 0.03397588488892222 -1.3432431684360964 -0.4896799669356577
C 1.2282162383757085 -1.5374856114481181 -0.5698797100241246
C 2.645813877921141 -1.7462659434848253 -0.6567773546451098
C 3.4460968063219797 -0.873616268101667 -0.0670370006276482
C 4.173182063361354 0.182293415884242 0.15765966005959695
C 4.991636270219566 1.1363849335726035 0.4860269720198588
H -2.3486696287573046 2.9947730900113374 -1.65756826115883
H -3.3288836985501713 4.199112457899091 -0.7195826370718085
H -3.3678018833053973 2.69989183400456 1.1878757703039908
H -2.2591786044985684 -3.2582626405909205 0.9722762743123503
H -3.376498909776479 -3.838429132214465 -0.37864792070585035
H 3.094692882247206 -2.5792645364648012 -1.1788778058991307
H 4.621727603923532 2.040284566861719 0.9595135059479529
H 6.046542376710093 1.0173044520239423 0.28098695200080964
