22

C 1.4434470179841408 -2.0050137396253973 -0.7291459826599117
C 0.5760228586094281 -1.0217318088319671 -0.04088934871207944
C 1.03639390557469 -0.21293026275418572 1.1233010384123667
C 1.7392450977508778 0.9883845741101654 0.6892469662621343
C 2.928648028116886 0.8090772043330449 0.15100053183892986
C 4.087686651631169 0.5350378031134976 -0.37988071809166885
C -0.6519959009713565 -0.8612180303980717 -0.48201735498638015
C -1.579908737078776 0.0952328364605826 0.14458664037826388
C -2.8091364697874335 0.24463777336114004 -0.30991426601613475
C -3.744801494679343 1.1957921072397961 0.3066485937463468
H 1.283700694252141 -1.855904171398309 -1.8348858339213452
H 1.1117435161422453 -3.0606974971520478 -0.5386457255422944
H 1.6298262911176222 -0.8789924538746139 1.7817322180038853
H 1.4447374288921462 2.0021536092180208 0.7365273096194358
H 4.0855569545612695 0.3641366381285943 -1.4246875179690779
H 4.901306084275256 0.5165663940434089 0.3156430269892562
H -1.0064363347285135 -1.4261333722438856 -1.3118843074087203
H -1.270046994050336 0.6821682041465618 0.977053476214458
H -3.146811791525975 -0.3511567299004126 -1.1667337197878578
H -3.4645137861474993 1.4333439530984127 1.3611216651256473
H -3.8373582907629142 2.086638879015417 -0.31718431892470633
H -4.757304729175563 0.7206080899101496 0.37061220713659215
