22

C -2.3794648038038555 1.1387603372382946 1.7636519550156136
C -2.04435239603981 1.7752979318556443 0.5073546802520098
C -1.4059085858360418 1.006647378627617 -0.35546299158958033
C -0.748553836025168 0.16972316055484776 -1.126750533315827
C -1.5719475113511336 -0.6030695032238509 -1.980977113037991
C -2.139149430836428 -1.7522046888296046 -1.7332828990195595
C 0.6937317763153915 0.18218041805376722 -0.9672891402435753
C 1.1006609798656795 -0.9434246073723612 -0.04085349074908405
C 2.597022773683175 -0.9862614877981252 0.1681887888788666
C 3.1052779042451673 0.29157258945092807 0.7723394016891368
H -2.3300171754931465 1.9029821740802983 2.5788672047636036
H -3.3062151739656938 0.5597366111466681 1.7887242412442508
H -2.206879854329975 2.7423051659996043 0.13135217190685405
H -2.7342782380900603 -2.2043144178879293 -2.4949971327337486
H -2.013153948526311 -2.2330581719611637 -0.7904043299727312
H 1.0870167832358073 1.1274763470359173 -0.6116957340171754
H 0.8225267352188913 -1.918768569209585 -0.5203631358523805
H 0.5745578900966244 -0.8368345965694363 0.9223574490297489
H 3.1068047596474475 -1.2787472037532288 -0.761266371086661
H 3.7517302038475506 0.054065542470813945 1.6485151900534467
H 2.270793157157058 0.9822749172248343 1.0581878046389086
H 3.769797990984682 0.8236606728659099 0.04380398414572698
