36

C 6.959016081199777 0.8965729850192786 1.1467880576286755
C 5.594157896615848 1.4437090132951336 1.4974970095806368
C 4.585237616098516 0.7471534707158279 0.6151162996542409
C 4.612700108412298 -0.7415920481344455 0.8473837789004589
C 3.167645229565744 1.2206694214316849 0.9305984074946417
C 2.195828885165824 0.54673511754896 0.07123914357394678
C 1.3817554573859594 -0.0004040169023694787 -0.6239929816290256
C 0.3649900488846313 -0.6829502808692685 -1.462450592548156
C -0.7630211348719239 0.3157137772736761 -1.6263050305482953
C -1.8045918876171136 -0.3088674794220333 -2.463644148977682
C -2.905914447158562 -0.9023534974929792 -2.063931923977552
C -3.200680390777712 -0.9906261234615666 -0.6150798389795064
C -4.636134659219598 -1.3409228393346528 -0.4823184378514141
C -5.427174199923138 -0.5788336065362558 0.23829173330941306
C -6.85125677579908 -0.8831282673583916 0.39914209618939417
C -7.605805663278813 -0.08552498073487132 1.134993567058738
H 7.185803120766664 1.1654861351690293 0.09282373926158363
H 6.976497252156732 -0.20777132329615122 1.2252954175104
H 5.607347670822133 2.5309916783329562 1.1852670744341087
H 5.377432804430403 1.359294680642499 2.5622447943094264
H 4.783701801157797 0.9548049907619222 -0.4533508232095902
H 5.194781287391558 -1.292104267968189 0.10965895632719852
H 3.629692709899944 -1.1962771864835962 0.9648889710861095
H 2.9628491159329684 0.9215686142297168 1.9817279735213305
H 3.0947336513775445 2.308740466099359 0.8228795122624651
H 0.7828084803891119 -0.9856373552950325 -2.4481607986540044
H 0.02480807796031498 -1.605261153865431 -0.9590893150908237
H -0.37528360265492844 1.2681324474830666 -2.095202323245537
H -1.156187266189121 0.5672915819086752 -0.6253794204514319
H -3.5915636768010883 -1.324374075892159 -2.8129850752614116
H -3.03996616950949 0.004748901073764827 -0.16245128260978814
H -5.0225447010615545 -2.232535194288601 -0.9869317107416609
H -4.999389452705014 0.2985661556011706 0.7236369048860871
H -7.270116290155145 -1.7495250959449167 -0.08237907638932176
H -8.660082857975832 -0.2284985023875949 1.3098784772672012
H -7.172074118190727 0.7870078438253972 1.6155892490747807
