18

C -3.9435781416216287 0.3958260637526189 0.552666642709184
C -2.8501851289088918 0.3064956423285084 -0.514907429191066
C -1.8879780481260633 -0.701558034411669 -0.061611873090411315
C -0.6436546136726212 -0.5683513257962097 -0.466135610899627
C 0.5614994102527123 -0.2652402929710069 -0.8634332425523986
C 1.3116395996869377 0.6081455467609871 0.014550976543242973
C 2.5456938150405546 0.3779653215118971 0.3527030246089813
C 3.7693518274652194 0.0009920230125895829 0.5542140259225536
C 5.059376242182822 -0.07723245141470668 0.7184245435395532
H -4.637893776576249 1.2115570595781113 0.3549242460677481
H -4.435854660410808 -0.5958805362460239 0.7057384445325565
H -3.2752235537212426 0.05952447017085519 -1.4996458081803037
H -2.4246104709789904 1.3238148677644284 -0.5897053562537315
H -2.0316842416007637 -1.5417393233326855 0.5556885884790754
H 0.8396801459683414 -0.6947037972059903 -1.779333783148628
H 0.8552738645649377 1.4984765988036992 0.42382140000968055
H 5.580324739954284 0.5134267964387667 1.455522866950915
H 5.607822990501406 -0.7614117697877437 0.08651834395258352
