17

C 2.6047320090775687 1.3113037958661427 -0.2958718325971952
C 2.4029446865377175 0.16337706235556693 -1.2652577012229873
C 1.108332046005754 -0.45857663147313493 -0.9278260590625509
C 0.050305099949479556 -0.9721905702856827 -0.6576828969679815
C -1.2510463320440783 -1.5797702141786627 -0.3159487911187899
C -2.2028116722090085 -0.49989281981525135 -0.08122430463166354
C -2.0101937253270186 0.22175368369461998 0.99699565649542
C -1.7432757445394484 0.8951123607572078 2.10078004458295
H 2.2266265754099583 2.279522251437566 -0.7151958314692285
H 2.1537887716878883 1.0887912134009263 0.6849323465826586
H 3.243398336563445 -0.5596996702062798 -1.0858922301542968
H 2.4415539316422823 0.5286853221698316 -2.2934972923646613
H -1.563057401389179 -2.3187775696504414 -1.0666649543674922
H -1.1094538282736452 -2.1244899973328324 0.6530630898531798
H -3.0390643988846837 -0.20420304639427436 -0.6570206947822902
H -2.2158779208650135 0.5120167958006123 2.9655538214884256
H -1.0969004333184271 1.7170380339037377 1.9607576297032694
