39

C -4.7970944270120395 -2.895758143595299 0.9034831700099671
C -4.968041526716941 -1.4592140393570618 0.9682905241934369
C -4.080853465686532 -0.7362385572392646 0.312966701744689
C -3.097962266156928 -0.12766738065895936 -0.3869692209380311
C -3.4472196079355415 0.07660997617658843 -1.7308985460304565
C -2.7548378310220807 0.6315102480173257 -2.706542719486255
C -1.9720235436503275 0.14180773633126997 0.4360417974457719
C -0.8527840213508012 0.7177966876055402 0.08443761007659484
C 0.1958309210593797 0.8857052375937982 1.1661893553697154
C 0.9927544319709102 2.1349782025800788 0.9108567958746677
C 2.029700820471906 2.1073590115137626 0.09246689381085867
C 2.8496307337818165 3.344753968922495 -0.18243318559980595
C 2.3947740422516812 0.8456205568229721 -0.5829978702933997
C 3.7999095880509395 0.9051555766282177 -1.068714465989356
C 4.111984086895106 0.49082971055796953 -2.28233675500527
C 2.1711572935847743 -0.30478943252945834 0.3203366293107683
C 3.1116877651491386 -1.4951850353010807 0.31050645213439876
C 1.1319448319460947 -0.28670534300729905 1.1465304837872974
C 0.8831563244359789 -1.4198534354345196 2.0572290590671227
H -5.0721735755040624 -3.3533742054728743 -0.056734513740990214
H -3.703575797512829 -3.127549967670504 1.0553797768952269
H -5.687685836068649 -0.8661996414341957 1.4522398235437264
H -4.4820899569701025 -0.27922567498892686 -2.0582302427165797
H -1.7845301823547255 1.025128336933914 -2.6176178116520497
H -3.206613780430395 0.7048403937225381 -3.721035416590828
H -1.9640771671355224 -0.13975568709068198 1.5249192966226317
H -0.6366661930086794 1.0690896286104972 -0.8945784050626036
H 0.7088702096483018 3.0379273631067765 1.3982228970749107
H 3.4030809544198237 3.2273233266827877 -1.1265709069244465
H 2.16277344747734 4.202839523847522 -0.23617787630693154
H 1.7298078601253528 0.7821016795914985 -1.494877854344263
H 5.113545244127067 0.5101144477874401 -2.6884149481523245
H 3.3212369659755865 0.10802572917271995 -2.912390407464428
H 3.8917418745214496 -1.2772372002739096 -0.43712303991848855
H 2.592421690340254 -2.4123554577618247 0.00043356905744124617
H 3.628241333880347 -1.5815661480343062 1.2902967648898838
H 1.7009691564471479 -2.143241651887923 2.0632340917231784
H -0.02436209162269924 -1.9620573565370152 1.6877876427042418
H 0.6073716935780235 -1.081542983930497 3.09831058175966
