20

C 3.693154447160349 1.4015658815107424 0.09574206803843743
C 2.991578114424375 0.6701949068600547 -0.9720012172932627
C 1.717606337596023 0.4292937289944842 -0.9065345675205422
C 0.5022184489313548 -0.0005098958581990412 -0.6041709353462115
C 0.4131113653678301 -1.236391783972586 0.20429365558754184
C -0.9637729898576205 -1.1836935994519702 0.8802666245616242
C -1.9610938068618833 -1.1389494719720425 -0.2209727227078006
C -2.8634826082143614 -0.1589497240211687 -0.2805738677258648
C -2.8611270384203658 0.8943117841356497 0.7723749149107243
H 4.689373880956469 1.7337743903845668 -0.22425489379264238
H 3.7079755382385358 0.810815601444223 1.0374344288542068
H 3.5359516575242242 0.32331548051015624 -1.8201962234974471
H 1.2110564781622224 -1.3459875729330708 0.9445054801804851
H 0.37866043497317337 -2.1276470444438456 -0.4574629752005578
H -1.038579287950292 -2.1051129481270556 1.4848199138538591
H -0.9819962519184191 -0.2972338052510082 1.5254444086692966
H -3.602176223280743 -0.0905731656540689 -1.0611469991074935
H -3.7272293486454564 1.5546978711829087 0.6993665448632116
H -1.9424138280028593 1.5057055493374862 0.7690000137644941
H -2.8988153201826816 0.3613738173248906 1.756165409121331
