30

C 2.581901779454877 -1.6693433227979082 1.1095785504202818
C 2.8462333073977035 -0.32246986787684284 0.6117898657358726
C 2.1033343538608387 0.3066130460233441 -0.262782940005529
C 0.866874269125886 -0.2697209168837329 -0.8847153007051065
C 0.7154080785302603 -1.6837225511761507 -0.5802747061052071
C -0.351301346440009 -2.17201477588073 0.006518811231369807
C -1.5147921326530522 -1.3975520553703655 0.41231418556756594
C -2.6819369922924525 -2.014395422080092 1.09699175695826
C -1.4533923975321834 -0.10735321876465273 0.1257867443074268
C -0.3238293862427959 0.5196869310420078 -0.5600735885348151
C -0.46546127391220954 1.7937072044789026 -0.9046598076188076
C -1.7121614338250675 2.5205248734857943 -0.5279272162769599
C 0.5399359643727314 2.5445684762924428 -1.6819033902173237
H 3.396129840613134 -2.36415094139452 0.8350154300741179
H 2.3824180066885803 -1.6324639150591793 2.1890735800732446
H 3.7345155516256288 0.18264344433732863 1.0100110270251859
H 2.4138800598416355 1.3007412127817561 -0.5483316028709452
H 0.995078339586083 -0.19079301378801153 -1.9967429588875822
H 1.4953775737972286 -2.4242455839158388 -0.852212555848476
H -0.41005184674491957 -3.25735656624654 0.22853496719304953
H -2.755127846726326 -1.714149943601162 2.1549408605988565
H -3.6324553798365726 -1.7422182925716931 0.5599316210968147
H -2.584269184764837 -3.1190413400111563 0.9783604515610043
H -2.312489745367692 0.4990959613421166 0.43340766404705233
H -1.7486015004224216 3.529919886604988 -0.9328936123336857
H -1.768403058168947 2.475257765073093 0.5848553499379242
H -2.6153826433393164 1.986448643877755 -0.9281482079695128
H 1.1071734063036194 3.1820239916071587 -0.99313175810979
H 1.1316122713266912 1.9422706034644779 -2.384491964643163
H 0.019783365743742305 3.297489687007468 -2.367691797404914
