15

C 2.690267697319021 -0.4302426218494954 0.4631784205336149
C 1.8519209881398562 -0.08053262939988153 -0.6732035430927357
C 0.5633330958065457 0.1122893202821053 -0.6122432436132338
C -0.6779174629357845 0.07221190706061445 -0.19923969206422407
C -1.2096363561633345 1.284971512885217 0.29655112622109087
C -1.4403310732185632 -1.1702541669824882 -0.25344869413087884
H 2.147614524142348 -0.8825684564767998 1.3090067013881723
H 3.196931282273073 0.5170784454104902 0.8115881358928841
H 2.247863607115227 0.03389716222036852 -1.6095938497658142
H -0.5177035902810502 2.128460614836307 0.4924516211027258
H -1.8183220748411197 1.2047229335349885 1.2473520685178203
H -1.955093634352175 1.7022216388566755 -0.44285522619621376
H -2.527831237340046 -0.9511412475572448 -0.09790719009893363
H -1.148676056924431 -1.886285690417362 0.5393918766305006
H -1.4024197087396086 -1.6548287224034979 -1.2710285113247937
