12

C -2.474089249124186 0.09465931815587009 0.7460729117365887
C -1.140618777732082 0.28668638366695104 0.15992856990777657
C -0.2628820821077956 -0.7245475265037818 0.005547948018561204
C 1.0753816737676496 -0.4816850651735884 -0.5929063016802747
C 2.07375547749989 0.02954922785599211 0.42108807277687355
H -3.2463299716796845 0.7595670418298105 0.3117979455839151
H -2.793189219409865 -0.9638980927811029 0.7807017857686571
H -0.8716251788003012 1.2985599526773226 -0.15629502657226704
H 1.48010635533924 -1.3630516135405266 -1.107516038387698
H 0.9097527684212197 0.2901995187662041 -1.4005392442287543
H 2.14583563260133 1.1336600971258197 0.3014668073198131
H 3.103902571224595 -0.3596992420789899 0.22220397261204589
