21

C 4.013222047531895 -0.07093096073134289 0.06353530733374103
C 2.698502114011787 -0.7588622312588789 4.697367699524395e-05
C 1.6160600836305214 -0.05441193650586269 -0.2824262337989818
C 0.2559661891919267 -0.6353632406243681 -0.3717866070130101
C -0.7142952678059876 -0.043385196778844205 0.598946284684574
C -0.9187882616306196 1.3990990242585049 0.44570660877573554
C -2.053038264110057 1.8957755993936394 -0.010893940499158842
C -1.9441936119815828 -0.8414941981763473 0.6436938945940764
C -2.558724515569428 -1.1887537616051436 -0.46753587782289885
H 4.223608489150322 0.550663349884721 -0.8214115579842507
H 4.078073491416464 0.48515068347222334 1.019483454405794
H 2.6669171231201365 -1.8316947454704464 0.1898819642814794
H 1.7294233659387577 1.0040334728181926 -0.45794767936579944
H 0.3540570096910397 -1.7204116139948826 -0.11549199233789467
H -0.1421718351085537 -0.623516766379593 -1.4184930051986961
H -0.13128185131696463 2.0818515210977204 0.7088591104925215
H -2.900007450753343 1.2464487351192433 -0.29836369274543995
H -2.2421924324648894 2.9534528651849303 -0.13815877914495886
H -2.3438937602152095 -1.1436153774339124 1.5983546886555622
H -2.2225129385412212 -0.9261311125996197 -1.4577457380801797
H -3.464729724184937 -1.777904109669877 -0.40736427971146627
