18

C 3.656171523241896 -0.026724910556419457 -0.9512460654309938
C 2.808064362647925 0.9140343568191398 -0.13759965856005824
C 1.4246757146210487 0.3901016672178245 -0.07974979958868697
C 1.0974033364118847 -0.660900091898174 0.6271392469021078
C -0.2785090494244381 -1.111795095251098 0.6321858288746846
C -1.1762949844356478 -0.4576428173567051 -0.07362548095715411
C -2.528889601583948 -0.9356105689856637 -0.042704560916309066
C -3.439738338639354 -0.11811323824945862 0.40694616513434795
C -4.285518358395462 0.7795402162072512 0.8660292049214691
H 4.635066790200613 -0.220792344955588 -0.48924810781598715
H 3.1281817442718043 -0.9719979218309647 -1.1184220827730094
H 3.241896008564482 1.0738356012292893 0.8818333041477059
H 2.808942801321879 1.8871880191982164 -0.6454779435906663
H 1.8172101623696664 -1.2278327059543785 1.2248088953680594
H -0.8922248663183853 0.41030768022973274 -0.6540452947912324
H -2.8825445308240223 -1.8800420701107543 -0.3430487296966714
H -4.429630930434413 0.7447354009668885 1.9149615950230934
H -4.704261783594785 1.4117088232807877 0.12843463664103436
