33

C -0.6752657614947806 4.04904095222043 0.7566499154565988
C -1.1203549902628436 3.3000822514001493 -0.4799934602355446
C -0.9839089749375404 1.8402395719378937 -0.32931820895903474
C -2.096541998522766 1.0636217652803341 -0.43661152673369996
C -2.0874105522881563 -0.30891960513146505 -0.3138081186911316
C -3.0596432903909796 -1.2980698292003312 -0.38009312247146393
C -2.502226085162239 -2.5294335683184905 -0.1831547226161822
C -3.205387315803494 -3.8254316145742835 -0.17979410222910205
C -1.0629288791711937 -2.292596039865377 0.023460657279317867
C -0.8114282350620414 -0.9623632116154935 -0.0543332980032374
C 0.3708126257443386 -0.12219785648198608 0.0583488344607645
C 1.6648933451368046 -0.8288016825165965 0.32547230464444143
C 2.7950973146212257 0.09766617322559297 0.422391065265212
C 4.016500091085795 -0.3246669312036499 0.14986920380784224
C 5.213733127112617 0.5651220014704473 0.2282575114970769
C 0.30500249952655917 1.1907683627747816 -0.068104015009862
H -1.1002212064744719 5.048421323556036 0.8319162228162115
H -0.7854797353430857 3.438656215697949 1.6763723275670839
H -0.41258310332923664 3.621523099582451 -1.3017923985962327
H -2.13320048525043 3.5583470896776364 -0.7678693377341331
H -3.0210114809480677 1.6358855183208365 -0.6330851821043073
H -4.131131304766435 -1.2238843280555172 -0.5560447993554589
H -3.590990729770777 -4.080331113893312 0.8373964460128563
H -2.5206615338173726 -4.631247972939838 -0.47688014611642543
H -4.052738916430321 -3.838851725401418 -0.9251292179751339
H -0.32584091098911505 -3.057541552312336 0.20758459130613563
H 1.8522305940011812 -1.503304212242913 -0.5561504610660646
H 1.5686713080681411 -1.47242607806211 1.2234638970325977
H 4.1727810749271 -1.3560776506681405 -0.1440336585516418
H 4.869740121487931 1.6165132691397692 0.3267151353908543
H 5.8828453796812346 0.31291973505993165 1.0515010845988466
H 5.772516476683609 0.5177441394634503 -0.7338348277820904
H 1.1941315321392991 1.7995935036752844 0.01868520157774299
