33

C 6.636972387096539 1.5386070945819208 0.6726260740827313
C 5.961145987706742 0.3211674337115278 1.147257703415643
C 4.68537328066124 0.1129590981694898 0.8929111520850512
C 3.9313204921144282 1.0914718959345346 0.13626767083477398
C 2.649698538891711 0.8435539860032037 -0.0979227909823133
C 2.0127764796055554 -0.3643110404309367 0.382685049068496
C 0.7307922601793718 -0.6788925602773964 0.18506424977982477
C -0.11968402128565248 0.21534804255965023 -0.5531040114040795
C -1.4118073854574205 -0.1032912254319878 -0.7514337859657934
C -1.9675236923521424 -1.3342111938999852 -0.23465738370170242
C -3.418187620715304 -1.6188307295680577 -0.4975608288287271
C -4.27582045138586 -0.49950900947560256 -0.06971290897615215
C -4.763401547953792 0.37833831190512496 -0.9382129185406481
C -5.63014299968653 1.5105579996792586 -0.5104767639425024
C -1.2029694557731607 -2.1587711922602146 0.44030562726529027
C 0.21996573442179126 -1.9374069208896738 0.7300071665326254
H 6.093693523010572 2.4680597109645452 0.8591300970167063
H 6.889666604380985 1.4483613265214 -0.3833288457517439
H 6.49392446048446 -0.42990370308989234 1.7147216789765989
H 4.426458244039484 1.9877837131259166 -0.2138590882380041
H 2.125186884937043 1.5931194763190248 -0.662166250015221
H 2.66019947270227 -1.0528712499878656 0.9489243633863083
H 0.2147261885549702 1.1731897063184757 -0.9835773585747623
H -2.047387207306861 0.5820268907497202 -1.3124687614626973
H -3.7298926095172553 -2.5945223291385737 -0.12628757248268752
H -4.5087922600364 -0.3988934924232853 0.9831542629153023
H -4.548315925843529 0.304531718977731 -1.9980824340566654
H -5.211920202678099 2.494503601491533 -0.7988774945039673
H -5.72354587035025 1.52857859723085 0.5963243101650423
H -6.642623956857913 1.3500024808657412 -0.9715925425984323
H -1.6569166020007593 -3.1112788352761838 0.8332817744844745
H 0.8175225807374378 -2.8222111784160964 0.3885224131523052
H 0.30950868967589634 -1.8372564245438319 1.854435412154472
