35

C -2.901441922888807 2.2228757710185616 -3.3391593498688943
C -2.8186118907835276 2.6411631306049443 -1.9594099479251694
C -2.7331942867001344 1.6665307794654454 -1.0655153567062414
C -2.688772467853093 0.6297664685112289 -0.29572337424965284
C -3.937519909860576 0.09289967137649849 0.16312093183418824
C -1.3231471778656736 0.1669693163100313 -0.019952186586890304
C -0.7379853113458265 0.6451235010508617 1.045760212226779
C -1.59135915080813 1.6437240265075626 1.8670958421805663
C 0.5528893313794425 0.40381799936011464 1.5815680688792206
C 0.8818280608127039 1.0703028873989617 2.737254079781652
C 1.5693064326710244 -0.4800151457485092 1.0307614776180891
C 1.6811584200776422 -1.2634411386990367 0.010326900275720542
C 2.984198673278089 -1.94359984493503 -0.06228384694490086
C 3.384718944800068 -2.8808318232030006 -1.1028672598353395
C 2.567700135356478 -3.1849380691188998 -2.0788501268128656
C 3.6628452751874128 -1.5272702199416435 0.977365564417815
C 2.8976438781455394 -0.5839361649401482 1.7800691837242077
H -3.263325034713547 3.0137244580123004 -4.0126381753513884
H -3.3784404354119544 1.2504363015664386 -3.466338837057939
H -2.8117149425281593 3.5855800453253206 -1.501243669843062
H -3.7772649254061297 -0.8688089622067636 0.7288426198805183
H -4.59393107847847 -0.12143431341314538 -0.7292392909125978
H -0.853822493620702 -0.5253650903823952 -0.6723162469431037
H -1.6603049272448225 1.1997549046761506 2.8697190907310035
H -1.0004072282715937 2.5573902950025276 1.8854456529337054
H -2.5790281056353854 1.7514851989004956 1.3930545491025978
H 0.2167452009423344 1.7311235537538758 3.212163062876307
H 1.8517341712338475 0.8817555049545127 3.130782434972897
H 0.9156446919941027 -1.423298797351419 -0.7293513293217453
H 4.363676783919136 -3.331486687573895 -1.073162687841719
H 1.5776923606800617 -2.764294537403999 -2.1579901910839756
H 2.8884935786502566 -3.8816226643243743 -2.836814155412151
H 4.693491502977995 -1.836137541885938 1.240594702149481
H 2.6238709007636225 -0.9727953820790872 2.784151102825075
H 3.3366329465472035 0.43485256941162564 1.8163811361598254
