17

C -1.0478967871159424 1.6859002075129312 -0.43255323563051395
C -0.46502098122204477 0.41138740977834 0.17735452917317002
C -1.5777823434567417 -0.17928132878627495 1.0307430917565843
C -0.03074936963823848 -0.5424718447379043 -0.8813478218723315
C 1.2243424463075527 -0.9672008698157152 -0.9222686949029398
C 2.2064838011756542 -0.47255340365924225 0.11629904973170849
H -1.2956043818958376 2.3462086820723917 0.42531906719652546
H -2.0329833364255876 1.4394468330744117 -0.918292419083961
H 0.3680284938444562 0.6515659559871178 0.8339286962530348
H -1.1650153874236833 -1.0387036134043826 1.579122245587566
H -2.4759436409587323 -0.3826491277699207 0.44938398817570036
H -1.8515544212519799 0.6361983752007322 1.7586366825320963
H -0.7086586379568235 -0.9118033399592058 -1.634317705061915
H 1.5294103819339644 -1.6495183065229255 -1.6818615200334355
H 1.8521958554364635 -0.7157444465788589 1.1406624750215248
H 3.1922893204475242 -0.9390808155280975 -0.09786765189281692
H 2.2784589881972797 0.6282996331385872 -0.010843702435217376
