13

C 2.135436728953697 0.6600242129921746 -1.3602784513902477
C 1.2086864082197246 -0.007186164966277206 -0.43463715241541606
C -0.10829472399525662 4.3162747838466254e-05 0.1205175477084601
C -1.3772377563162128 0.6871529180248336 0.11419070398506956
C -2.3778477140380865 0.24901901942321097 0.8889936621436069
C 0.8740446162571038 -1.0361120049871688 0.5266688457874462
H 3.095518080786765 0.1399603033016083 -1.3518517970357073
H 1.7249602435352211 0.7819980966528188 -2.383961080004952
H -1.5819635939710883 1.5510467245890367 -0.48609332372243075
H -2.223002122614453 -0.6246204155374204 1.5182381369394797
H -3.335930226042912 0.7142327766485342 0.9268634562229656
H 0.6909112929466347 -2.0819713801138033 0.14434595298777794
H 1.2747187662782202 -1.0335872487733662 1.5638090435716407
