20

C -2.060620079659252 -1.7034461516462385 0.8556795926111528
C -1.2558085292412309 -0.5183283369280985 0.35365809907802676
C -2.1789219047518684 0.6577879301776366 0.3553829793257551
C -1.7424624590958124 1.9034913141087153 0.2371361631910296
C -0.8114411735503277 -0.8623902118596095 -1.0530286107783002
C -0.00386317710124205 0.23202428449121135 -1.6639145314527262
C 1.295993665383912 0.2150478898294604 -1.3925999615784064
C 2.510089277270961 -0.010892656611390227 -0.9973116745370004
C 2.927491079072457 0.49830981363611804 0.31503402270849434
H -2.5369050393945156 -1.4995827818031564 1.8376417389496167
H -2.8855088004220826 -1.8596486036645619 0.12779286707216034
H -0.38653690200637736 -0.29109858518769965 0.9666488494380981
H -2.480085710901763 2.689437596385438 0.2485376834924891
H -0.6797322627111407 2.052440333485946 0.13724367209237318
H -0.2530044251689924 -1.819818408342531 -0.9985754893052244
H -1.678352142426422 -1.0285693667601048 -1.7253265587503042
H 3.169559731007851 -0.5579018961678994 -1.6241784613248753
H 3.8842824661431186 0.058702852615056554 0.6732345939678421
H 2.996802473353352 1.616717743759802 0.2247242395123636
H 2.1690239142007814 0.22771724048138078 1.0858765085809954
