22

C 4.605338130385206 0.5263575433562693 -1.1989560146992573
C 4.272716687572402 -0.30797984896716674 -0.06094939949354224
C 3.022344042969606 -0.2596371842187144 0.35293349470348484
C 1.7339484147582553 -0.22044851777550142 0.6137534380043117
C 0.9181861245233907 -1.145348317097814 -0.09140113308991898
C -0.1448936886758747 -0.6586577188749815 -0.6965663873278389
C -1.2408235276390176 -0.07916354044608423 -1.1648415440739275
C -2.346887983723541 -0.030293725627169078 -0.285492746272424
C -2.803893357463479 -1.2224497343201173 0.39308017447667265
C -2.976960238195774 1.0770237032247163 -0.06748206802423613
C -3.6655899311118247 2.168778438791375 0.016454636846951344
H 5.139571547915749 1.447977667160073 -0.9738656659000842
H 3.884851752920019 0.5604051940489005 -2.006968928201604
H 4.867673877532869 -0.9674111536007449 0.5122885900827874
H 1.4840190707560041 0.5140147704282371 1.328642477066137
H 1.0196195945009363 -2.198033436030399 -0.21860120642465677
H -1.1092030876812857 0.2676224013481632 -2.1560777237934468
H -3.8394817988932486 -1.5362404502253328 0.13711295171945953
H -2.843014041051734 -1.0385187333571324 1.508320016112063
H -2.13688154345313 -2.1022536066766744 0.2874648960498963
H -4.455248775854713 2.371009404222762 -0.6280451987612138
H -3.385391270090942 2.8332468446375727 0.7645126575855583
