11

C 2.2325115225181467 0.39262550262228096 0.19770929303479476
C 1.3027901020557462 -0.7031433708405037 0.46012155726818144
C 0.28549707340261227 -0.8517262371135312 -0.3749882870232288
C -0.967552224194143 -0.7967511938790154 -0.7608650196896515
C -1.9502967387479149 0.1863790224188774 -0.25573422209224184
H 1.979689944463794 1.3331438091891505 0.7315092916944386
H 2.430278881210639 0.5562733354757622 -0.8748065320059112
H 1.4458535037192712 -1.3527515160452586 1.3027157025534628
H -2.833799747011812 -0.37207223511931936 0.1240221028893112
H -2.326122070395339 0.7889724359679638 -1.1145396098293519
H -1.598850247020981 0.8190504473235909 0.5648557232001999
