16

C -2.949564406831037 0.33640640847328723 0.6515758671165087
C -1.5703444048160287 -0.12621560793900277 0.4959651364177562
C -0.950927770299965 -0.8947408925586022 1.3411879538710614
C 0.28679274868868765 -1.1666800080531345 1.0615534856278417
C 0.45359442397754535 -0.8619927446670731 -0.3716019082253355
C 1.7956299376723315 -0.3769919761269712 -0.7170838397706311
C 2.4906973899591622 0.49699075102766865 -0.010486819528974919
C -0.6238985251542963 0.1675660326805616 -0.6082874045990281
H -2.991042789168195 1.0197579871587312 1.533527243158215
H -3.3649928703522067 0.8054544481218426 -0.2598626435151294
H 1.00091487356733 -1.5364315128970112 1.770348945022497
H 2.2541695170693297 -0.7628070843758599 -1.6193300384419487
H 3.4731684775607756 0.8345549936997224 -0.2882826462535577
H 2.047815287975696 0.8891112896160253 0.8886749235154294
H -1.0782331302792298 -0.02727116776678878 -1.6029768437003786
H -0.2737787595698939 1.2032890836067165 -0.5035373568294413
