19

C 2.260882371240147 0.872452907439582 -1.2289555088089164
C 1.795124330625686 0.04856536047004804 -0.06228238189152655
C 0.3806903144385066 -0.31165575907238713 -0.10744562833079938
C 0.06127632612539912 -1.5943612055163803 -0.1257223124499492
C -1.3172307263688738 -2.0635488054853495 -0.17054876039091674
C -2.2651299708586983 -1.1773580687229765 -0.09578277714214155
C -2.0094537454118115 0.006172993797735587 -0.5734157607203717
C -0.7418660224649682 0.6515698317733964 -0.13512238190860412
C -0.9867242843131413 1.3324471765489077 1.1669633438431901
H 1.77756675516091 1.8375588433895436 -1.3294311623645403
H 3.349651325354044 1.0559269157445441 -1.086310114879098
H 2.4109117409308154 -0.8695068907814089 -0.046955652113812425
H 2.0329936487304523 0.5672410134321564 0.9096914031545402
H 0.8258661542072394 -2.385568879095272 -0.10793099007463097
H -1.6101102651032384 -3.097627876567344 -0.26168329485600217
H -2.7094139525875924 0.47291635071900584 -1.2577317120458336
H -0.8242719684453937 2.437905534811836 1.000284553413983
H -0.3767656603984161 0.9507710588951951 1.9997320040382143
H -2.053996370860965 1.2660994982191358 1.5126471335271106
