12

C 2.4715568524005924 0.8129300540349718 0.13299701157946311
C 1.864844042537447 -0.339860436274389 -0.5485083177551257
C 0.7330830040408448 -0.8205419717312937 -0.13263787947387076
C -0.5241833020969806 -1.193253782525746 0.0640071997766037
C -1.5313727702854607 -0.2777293603863576 -0.49022051736732286
C -2.6017885659053497 -0.04061831182427554 0.26657023118867457
H 2.97199783584458 0.5804856862836907 1.0686181892275577
H 1.8533307618576929 1.7159023527247979 0.15101576999842062
H 2.3535867778757953 -0.7793198303021303 -1.38844297704512
H -1.4524762110681129 0.19396731566355918 -1.4406294845738117
H -2.7495197935865754 -0.47956836910706885 1.2336405658138798
H -3.3890586316145117 0.6276066534442842 -0.08010263562211298
