17

C 2.9372058123138047 0.4908766932381549 0.3450869757824979
C 1.5049930500790731 0.25724222178600203 -0.062379336237065514
C 0.810794230977075 1.3452210732170096 -0.267125051828997
C -0.41510792952191855 1.3598362497592227 0.15884973089349355
C -1.1438243799771959 0.10043917337237886 0.12019337216245438
C -2.633785578148022 0.19521832373509915 0.285163438583595
C -0.5339558571712728 -1.064824174415782 -0.0502585645450849
C 0.9578567955275306 -1.1059248909841637 -0.21049374379302865
H 3.360958571029045 1.2940739318514982 -0.31846237531201527
H 3.5298511967960127 -0.42555622336202537 0.2463192184998933
H -0.8351205838280841 2.2841229025991407 0.516386063710532
H -3.0973378955055395 -0.7296139140793683 -0.14703154992960213
H -2.824918626637995 0.2163383135361693 1.370840176234144
H -2.995376374493238 1.1073818623693497 -0.23211166519485332
H -1.133050895509018 -1.9513317519577489 -0.06842268937786423
H 1.182149144468887 -1.5586789471626203 -1.2011786156339979
H 1.3286693196008499 -1.8148208435023172 0.5547224570848696
