19

C -3.63435791713383 0.6819761559647785 0.3013173301153324
C -2.466749204357292 0.3029937900823261 -0.5945234650710794
C -1.3698634366032567 -0.3774385051197741 0.19795595654543216
C -0.27516433701823106 -0.7144369690566451 -0.7352331473316741
C 0.9435122233133711 -0.568027051075345 -0.32222028821050863
C 2.128526097505041 -0.14264622718975972 -0.0033346794867444712
C 3.3539442989140076 -0.5002087122074533 0.7083600180044942
C 3.222244171072094 0.8199447480374266 0.01816658311419379
H -4.599212480969701 0.3034584777346315 -0.08886340551554278
H -3.449831155775415 0.3436956390197696 1.3541841610477032
H -2.8061520551495356 -0.32857172749239855 -1.4282849375948439
H -2.0408734889087543 1.2505933642470635 -1.0197708069977596
H -1.0285038242298348 0.2609255987052253 1.0111298228099388
H -1.7969863279859613 -1.3294467038906146 0.5827959739020816
H -0.41162556871815215 -1.0730490545615798 -1.7333785329550002
H 4.048843242875842 -1.24736285004416 0.31609036582326105
H 3.3977841953839545 -0.4054331289113339 1.8336253345235187
H 3.0633580499396023 1.742832795954419 0.5726999209081909
H 3.7211075178462636 0.9802003598034162 -0.9707162036309881
