12

C 2.0186588128490373 -0.8511937435753058 0.24360088025551538
C 1.2273103450749192 0.10638360707385351 -0.6515930045827197
C 1.0717613600369984 1.4553626402980588 0.00659733365230564
C -0.0797604325400418 0.5450332525845524 -0.326768299926226
C -1.4881123920476906 0.6900642195873666 -0.13328937470661095
C -2.3500436906035014 -0.2548775132289465 -0.508722229268732
H 2.2971809076414824 -1.7488158351662249 -0.37775436257465234
H 2.999788180497371 -0.3109509831305403 0.40189155287047806
H 1.646178417195609 0.1261486899451649 -1.6957096561732865
H -1.9807048939328467 1.5701106013042083 0.3305780738394215
H -1.9521909537516056 -1.141872662895834 -0.9675590115400143
H -3.4100656604196797 -0.18539227279633486 -0.38205000939621314
