14

C 1.8173357505281307 0.5515862143920013 -0.48259381549634967
C 1.3152937280105288 -0.41963249527230284 -1.4826129388047764
C 0.13349435040443317 -0.9962771700662697 -1.4609732535995341
C -0.8047394440291296 -0.7219861728130788 -0.4264767675540938
C -1.411552344985321 -1.8008285319408524 0.33413687819781523
C -1.0414954323080248 0.5459571725201487 -0.2468014009294047
C -1.168098375773379 1.7086384314257708 0.33210182703629093
H 2.9311020608190677 0.49036538740191826 -0.41787603539021273
H 1.5332604011864037 1.5921910468712175 -0.7163962992134256
H 1.979844537991802 -0.6699881336276436 -2.293281267591773
H -1.6743883491489517 -2.6980326424519983 -0.21762832837981674
H -1.078679334712199 -1.9281994726622058 1.3573688327795375
H -0.54495282282993 2.1039835757886167 1.0784200348376634
H -1.9864247251534208 2.2422227904346124 -0.02641993125006638
