23

C -5.09951602466024 -1.533773227408749 -1.3726538435992077
C -4.009127406768245 -0.5052504011769071 -1.3282569899868235
C -3.094029356002245 -0.48977083184603376 -0.37386326529578223
C -2.046670891918453 0.519256882579001 -0.3539494811743934
C -0.7214241640681621 0.09823266204107131 -0.7358682482245116
C 0.16826350669007178 0.011391626586355947 0.24448399512423738
C 0.9794132251443634 0.04458716192346233 1.2649491891511804
C 1.634874099782477 1.301272148659391 1.5119019279761554
C 2.9472989507790475 1.350072393502504 1.5306297973795535
C 3.716535513468006 0.13578785927404413 1.3020585988502644
C 5.043135922968935 0.1240947618658112 1.3092360799063185
H -4.791654294524102 -2.4296554900385714 -0.8117717256090601
H -5.30018870055081 -1.8650919017341696 -2.4285770241949254
H -3.957439248761783 0.25528130685219047 -2.096373036474716
H -3.1232410676106315 -1.2438303070339192 0.41078378164305146
H -2.117108474034224 1.2877466815696248 0.41056317041012025
H -0.30682385693971914 -0.16114833569592957 -1.6682557772182753
H 1.067682112265401 -0.8535258760419211 1.8022477880486445
H 1.1052003008480362 2.2199385252636223 1.6852403614373075
H 3.4941631366305788 2.275617620457712 1.7126307143633512
H 3.2171202154617724 -0.7995684804430421 1.1182409576441805
H 5.588547237026998 1.0357585521196997 1.4888532574200337
H 5.6049892647782515 -0.7774233312829837 1.1394469043405728
