20

C -1.9912130816471227 -0.1009079145587512 1.1693642760286922
C -2.248732434194586 0.2503011405837358 -0.25411083942971185
C -3.2954082756730103 1.0097596596272864 -0.5569723689088018
C -1.3378156489780815 -0.25266242478360706 -1.2871459866331147
C 0.03470407635967536 -0.4599490150753401 -0.8408308413842266
C 0.3025728209923974 -0.5359126501611731 0.45219383480131126
C 1.6756933404928542 -0.7456752648222488 0.9798377675931839
C 2.4752855556820563 0.48396637379072127 0.7567256011164358
C 3.5664772237120546 0.40112206321424887 0.012675600828304446
H -2.7087962722442636 0.37624463839372996 1.859310323287721
H -2.086344359075124 -1.2082236661096926 1.2843848545195378
H -3.962431523476126 1.3745219724658073 0.22848242561379709
H -3.535967017294804 1.2998798774705327 -1.5751561566371393
H -1.7491338935097611 -1.0037534391679273 -1.9570293293683982
H 0.8447608572040624 -0.5537560504623386 -1.5459412908473837
H 1.60043191709155 -0.9013620537459192 2.085672548948946
H 2.172801238597454 -1.6385007635374311 0.5713585482472054
H 2.1827706615875315 1.4329750652810387 1.1876797133642647
H 3.886677724981807 -0.5170095541689425 -0.42877415708785005
H 4.173667089391855 1.2889420057660028 -0.16821822336728162
