53

C 7.295921234933945 3.181119784833458 -0.22664741094903812
C 7.488946723160041 1.9476074571364241 0.5700513591943904
C 6.631349454649966 0.9539936722272186 0.41670446831887437
C 5.471908075098912 1.0791247817146838 -0.5588149458807576
C 4.246648955204868 0.8570735887353962 0.2439253613961865
C 2.966443102350635 1.0217419517354522 -0.4174914387482111
C 1.9146477756871418 0.5421168131008048 0.2043265612383292
C 0.9435323155517178 -0.020228177409089238 0.8727663690797811
C 0.6395571537846803 -1.3655347071074424 0.5040524198062727
C -0.4680131523781291 -1.7387337108262084 -0.04654703927146756
C -1.5472232368319867 -0.8153468559127448 -0.3593968973022902
C -2.1749978220813304 0.36346070785808643 -0.43154443942752463
C -2.2556341740233767 1.823946625433738 -0.21782129300094388
C -1.1411344168598467 2.5952552190437106 0.3928708249009409
C -3.367297860276384 2.4396166571058964 -0.5974043562441324
C -4.480919594545124 1.7070126914655943 -1.2081118341121315
C -2.9162819130314594 -0.7993368290511508 -0.9518311174645846
C -3.9019564033204617 -1.428890662367811 0.00580180778628121
C -4.031274354999565 -0.8304409195399468 1.3528192254929015
C -4.557513936819838 -2.423478420084622 -0.4116842665236973
C -5.522897972612543 -3.2840483259109767 0.08564153634824172
C -6.001640865402153 -4.384821564163697 -0.8787775701018922
C -6.066503426195485 -3.2761753557115227 1.263301367994533
C 5.627989368258432 -0.012252483428590772 -1.5560817022969498
C 4.781290056165236 -1.007712718288703 -1.656307654511617
H 7.440647945910731 2.9930555111283113 -1.3075282470600404
H 8.060000565502783 3.9179868048062136 0.09272218925891836
H 8.308980138982907 1.8541661559850415 1.2646196622278114
H 6.77499525311058 0.05581651333588005 1.0005999341144682
H 5.510021863328121 2.0659399169731136 -1.0408325929057565
H 4.280279200644695 -0.146813858678507 0.7247266874789535
H 2.721204927490847 1.4804569213137282 -1.3490244841258892
H 0.5119266111296025 0.5998191958304283 1.6153498135355244
H 1.4179338580602987 -2.1463611918378067 0.7086778189085019
H -0.6111836726303385 -2.818426842305557 -0.29771948487044714
H -1.3940164006816482 3.6786935347023104 0.24407520542113825
H -0.2231289619578845 2.393935217632137 -0.15907871509542584
H -1.0400535928474746 2.351212591319564 1.4616885633339842
H -3.4397760708896756 3.5039778663591443 -0.44685386073819044
H -4.183759086138568 1.0023727660181687 -1.9847918613985032
H -5.208691523136298 2.42574943516479 -1.6970669614113512
H -5.100817528169207 1.165634555430689 -0.4450396338072752
H -2.959864721956176 -1.0565824075505077 -2.0028787152356
H -5.0417476412696285 -0.4146833520047555 1.544032710668503
H -3.270011346855059 0.017134770037213844 1.456520072720757
H -3.7005708146947316 -1.569844784890685 2.093759960672363
H -6.023907812999516 -3.940789387446573 -1.9119684345213102
H -5.143319546750288 -5.105219135318526 -0.8922442794230685
H -5.801876395251774 -2.5610987959572014 2.001120789696752
H -6.8255523785028265 -4.007904362481826 1.5516437153487765
H 6.481811976465135 0.022836663054210057 -2.223138875916214
H 4.955180168878613 -1.7707952929142439 -2.407537278587956
H 3.930349899758236 -1.115338228292866 -1.0361063288816266
