26

C 4.4073327744484425 0.09036166882068399 0.670119573800762
C 3.3150592986482734 -0.6905617915216482 -0.010458927458173136
C 2.5982632380871857 0.18015023049467482 -0.9523478342630816
C 1.2977865225919683 0.40034429285763967 -0.8093503337296787
C 0.5534601923443602 -0.2275102225789981 0.29941793561922675
C -0.8280403021152887 0.3196961764624953 0.31111447389766916
C -1.8746188853137586 -0.37089430786296446 -0.11204819971627591
C -1.6270816634282497 -1.7463749425581547 -0.6135243301939128
C -3.218775281296478 0.22367641467335897 -0.07638734457121678
C -3.2144619231258758 1.6312654722820892 0.4744780456417551
H 4.707276621987751 0.9917825001070748 0.10145329424672918
H 5.286136196953894 -0.5743608416155364 0.7978802985851174
H 3.771487562935278 -1.552773697155332 -0.5535532259179359
H 2.6759414864967765 -1.121454426856284 0.7699808433650638
H 3.1581196144747783 0.6344993237123727 -1.7618839103402288
H 0.794715975766633 1.0608108543147776 -1.5377391657781878
H 0.9940935180399602 0.03081478603107314 1.306728192277649
H -0.9590578570949979 1.3361989339879283 0.6893068181628607
H -1.6316833080962854 -1.8164015349934086 -1.7170581529551994
H -2.3843389545417266 -2.4133979263725283 -0.15812149115399055
H -0.6394338104100514 -2.128564545104676 -0.2810439695251272
H -3.7097928404232614 0.26605011140934415 -1.0708616176212296
H -3.864944140926496 -0.4112923671274613 0.5786576942075196
H -2.5611941584721962 2.2476019079618865 -0.1699455726507191
H -2.802998356832998 1.6044926631459242 1.504492449879827
H -4.24325152070102 2.0358412674838613 0.43827397232410126
