19

C 3.0455023475576017 1.1641698418637523 -0.824340982791094
C 1.876755897606143 0.2654704180248059 -0.4867833919914263
C 1.8405246943109839 -0.13471595420400903 0.9505001918421777
C 0.6474712517818254 0.957132414516017 -0.9428134087553625
C -0.4332855702564465 0.22217629288331983 -1.0102146366089546
C -1.401484279339209 -0.6838848343099458 -1.0469021288867224
C -2.073844128689759 -0.951089984700433 0.2331877069680061
C -2.738494548111592 0.3665953159946682 0.6587427677752682
H 3.9648413238984253 0.612168770568547 -1.015381950844755
H 3.12782406494671 2.0452968006625367 -0.1935827885935054
H 2.033754468323971 -0.6746800448220024 -1.0870407129228634
H 2.8449142915842427 0.10240427861124403 1.4091789067951375
H 1.7505371106494965 -1.2523534824154112 1.0817653832660061
H -1.5817166226091566 -1.116231571328683 -1.9936394375969522
H -2.852401353386389 -1.7292569355601064 0.1534967383545527
H -1.3727678334697093 -1.2811542730894403 1.0396881696918183
H -2.217513616833932 1.2370976002680558 0.1682612764924556
H -2.6679484247406666 0.5151019442406646 1.7532364254934403
H -3.7926690732222954 0.3357534027963932 0.3147252523880041
