39

C -4.740280845445942 -2.3517171775966514 1.540576486811112
C -3.3838228946730826 -2.317227815036308 2.0747701777419976
C -2.414401395803638 -2.272053343963875 1.1918409104127379
C -1.5199569806410969 -2.2002432417877085 0.17948199569553128
C -1.1263784556609902 -3.4818798518463843 -0.24719139320205638
C -0.30262126866123745 -3.8079519111690505 -1.174626517565537
C -1.231810758058107 -0.8646515930428467 -0.16580330412046604
C -0.4217106221035477 -0.45163410602234244 -1.091603446498946
C -0.1844067984872422 1.0002011667415738 -1.3806160700687409
C -0.08081635169867056 1.8036979051426876 -0.14399040910300154
C -1.1606611101067803 2.646507315848026 0.41272016239492004
C 1.0876297190879949 1.7397749250882273 0.4908214082397578
C 1.367037317304088 2.4857428006147044 1.7529011266101266
C 2.123487881517167 0.8674564631317144 -0.135009809420472
C 3.440100614829661 1.0349279984092508 0.5195732884140554
C 4.261874610071796 -0.0012600060020132098 0.6187618294594902
C 2.2604245392851032 1.103765398752094 -1.6172896943009927
C 1.8118085514301823 2.4291321418384006 -2.1536923541422266
C 0.9422881715642611 1.2395565843234302 -2.322552331392863
H -5.179267110359303 -3.358470026135609 1.784424663439313
H -5.382442884364736 -1.6231884222773634 2.104231592965926
H -3.044685585569815 -2.3234992942168273 3.067196270385249
H -1.5684324038698236 -4.391300204556893 0.26915928688833607
H -0.1193865807226536 -4.889612855539214 -1.3661881054819929
H 0.24232143488806768 -3.176147452580613 -1.8005762090349278
H -1.712881955287857 -0.001694362789261422 0.3718333300939119
H 0.13207577431822032 -1.1152001868572394 -1.7128383063097188
H -2.093465047117421 2.596824987853787 -0.160133475226628
H -0.8408339942521865 3.702357327579537 0.43507172143075956
H -1.3359122604110554 2.338772140011025 1.4823971976451926
H 0.4799277634086047 2.5938476513455413 2.3767336436875786
H 2.11538803126313 1.8551601779083264 2.3113129604973
H 1.8656930181804656 3.457678863957897 1.570049570075843
H 1.788353974686586 -0.1840544982506388 -0.002775302731759366
H 4.014133857477733 -0.970737585432964 0.24124526575058866
H 5.210316218295146 0.1505039356884041 1.0986595549431715
H 2.3317570234954066 2.8378428358859153 -3.025926992629031
H 1.5079431022887755 3.1933234844431113 -1.4113039101924376
H 0.8616136998741168 0.7054498306895445 -3.290057082235435
