11

C -1.5819113893667938 0.608355807640592 -0.13103342875621335
C -1.0489915457658079 -0.8103715024086944 -0.1115241925893968
C 0.22062325340185002 -0.8839997538411475 0.649272316490999
C 1.2520333794021754 -0.22779684436903144 0.13606233960211253
C 2.1146683471627767 0.48660275709554834 -0.5174911733321961
H -2.4699794483321975 0.6716638657324303 -0.7579916387059367
H -0.7852758419938094 1.252674731497103 -0.5525273239852927
H -0.8083901388888122 -1.1688286319156176 -1.152127807207063
H -1.8163770322158366 -1.4932293910633285 0.2946027132583519
H 2.6968510696336505 0.04924598426395734 -1.2936088204437313
H 2.2267493469627757 1.5156829773682579 -0.26551569100907
