28

C 0.2249239355948445 -1.7288506696040893 1.1191650675785902
C -0.29537834148175685 -0.5032131995128091 0.43298577665713917
C 0.8287897882259398 0.44246624334389 0.15141487197564768
C 1.8876542029294756 -0.1633903289257642 -0.7373329672330372
C 2.987108882469014 0.7422700852825165 -1.0205192778454915
C 3.6942965750782486 1.1608042789775228 -0.002133290537603442
C 4.341350446478169 1.523259580254775 1.085975011704234
C -1.082044130733759 -0.8459218897232764 -0.821403648046299
C -2.2417464984181406 -1.6957284189442905 -0.516474910736399
C -2.7703649866245086 -1.883981092429084 0.661512318054565
C -1.3975759991950265 0.3386939835044504 -1.6131416793189441
C -2.5096415088879325 0.9665980382502101 -1.3109564668838352
C -3.6390948039678346 1.5293827234577493 -0.9376740391420905
H -0.30353181817388825 -2.651241379125984 0.8664441064644997
H 0.24250160334863208 -1.5508369686782382 2.2010062589048656
H -0.9876142086563164 0.015425820539414341 1.142406710903846
H 1.2452884164323796 0.8998386655681403 1.0604029461598294
H 0.3876922942580211 1.297163914411247 -0.4404232413053792
H 2.23393890816363 -1.0899020028722852 -0.25524009655154495
H 3.315877410990136 1.129420260683288 -1.9568762958710253
H 3.963459527758421 2.39482887038385 1.5499344682658898
H 5.1492764341553645 0.8906849302771334 1.3447528489688851
H -0.37836592733381347 -1.4767276112135395 -1.4412125049777738
H -2.3856666048540944 -1.4124037656899977 1.5501765366186693
H -3.6271334882158963 -2.535423252259782 0.7635547414149223
H -0.8567331971787927 0.7764558502962624 -2.408012325044999
H -4.494189161405422 1.1669521484502205 -1.4431187217185095
H -3.533077750754799 2.2633751852983 -0.1851671572027504
