20

C 4.305073871641055 -0.6183068091086563 0.009531318740754625
C 3.620629015081581 0.70638404240918 -0.25389582057769133
C 2.285570638579165 0.7652345826183357 0.3708058966883798
C 1.1649916762004395 0.49138967039969034 -0.2543994632683753
C -0.09212357135486697 0.582537231476998 0.46088476900319797
C -1.2272839087321576 0.3152505470055688 -0.13652311764315944
C -2.529742986610123 0.40146217451162697 0.5752998564951931
C -3.181125941606301 -0.9310991781739091 0.4597665279152411
C -4.348934470266116 -1.031410845161601 -0.1282806234492147
H 3.6848060481849814 -1.4556255450825875 -0.36159334126381
H 5.276668993587373 -0.6491700064455539 -0.49333075261061204
H 4.248631642520497 1.5050689215399373 0.17756825499724588
H 3.5712543985983634 0.8577184750744904 -1.3596829298991515
H 1.174249273789482 0.2022406776800338 -1.2854572531003923
H -0.12084856207654163 0.8756707734419213 1.5123804286978195
H -2.4095643455513036 0.721020842950334 1.6331721768292569
H -3.12158830043319 1.1853436339754484 0.02055547512250799
H -2.640862822098439 -1.7723483182925233 0.8795381352250238
H -4.833837031390327 -0.1648770231236023 -0.5236121809212235
H -4.8259636180631595 -1.986483847694806 -0.21631982025950092
