15

C -2.4714609805725694 0.25051387914670525 0.9486802505028986
C -1.7730070067773347 -0.981760661072486 0.4655486423008132
C -0.5624775209076096 -0.9427202829447641 -0.06116822165644843
C 0.2058696537638569 0.30963237006954375 -0.22014706303699327
C 1.501240457605945 0.26388962310632236 0.5327940037489631
C 2.600558431437551 0.39890973151251896 -0.17761568951422047
H -1.8609242205382717 0.8015711334965298 1.6878077779113267
H -2.8414280775545926 0.8601741018161038 0.12277108148700229
H -2.2958943854355436 -1.9053990005704977 0.563507940697043
H -0.11276647437408026 -1.8654267233352109 -0.39069598209220624
H -0.3506062494632772 1.1785870333190385 0.24471202951866017
H 0.3520770443663371 0.6036006392118849 -1.2658273130589845
H 1.5089478857961867 0.12466828619088173 1.6181197300717578
H 2.5497296500223867 0.5331513447298668 -1.2352146179028602
H 3.5501417926310603 0.37060852532359945 0.3336360566920099
