17

C -3.6505727697749193 0.476282601670385 0.06111887976631869
C -3.0948866314486954 -0.864668426360515 0.11130137713527755
C -1.8041824311408854 -0.9631264947043958 0.3040340949487128
C -0.49367875438925146 -0.9542843236976208 0.3752363662571829
C 0.22083621812164805 -0.8919878956398876 -0.8482539851556085
C 1.1226426302624235 0.0764966637244186 -0.9462155977886629
C 2.0124746309047077 1.0314136856928369 -0.9256409927019855
C 3.3155467879273 0.6412462172168941 -0.3903837758254358
H -3.6554066557793368 1.0190338278844984 1.0234381253961984
H -3.1634465554335445 1.1432636717218847 -0.6756857265212922
H -3.5849854990205845 -1.8099827875906254 0.011664739618711804
H -0.14621957501624835 -0.9954662634042117 1.382670281723452
H 0.17246455835862187 -1.4843763622947623 -1.718267215391767
H 1.6824072134248076 1.96410450435423 -1.2952111138259939
H 3.928309926238712 1.5350455614544827 -0.14030682859097068
H 3.2717511396856658 0.01912869797332647 0.5113335623120309
H 3.8669457670792204 0.057877121998970715 -1.1602779563001513
