17

C 2.4646984438295205 1.2828824011184736 -0.5681421123077579
C 2.11600918710793 0.43230539814580704 0.5483177388421113
C 0.9482300768834124 -0.1819747188977375 0.45358699509770495
C -0.2162354711490094 -0.7443902860987817 0.24959594630724877
C -0.15863377248957952 -2.0207532723071866 -0.441255114813306
C -1.3208882168982683 -0.006125881441924893 0.7367849643930107
C -2.006771313373543 0.6969882917544626 -0.12007852708609291
C -2.641786403599749 1.378771836868605 -1.0608092336178665
H 3.038701153336802 2.188085432599078 -0.33026581635721414
H 2.9482814908127444 0.6611900989927413 -1.3625979487159103
H 2.6175088560747564 0.19801947455143928 1.4434017165400925
H -1.1085150840685394 -2.2944408765009303 -0.9648802091261137
H 0.07696217507142826 -2.8327383638822443 0.30382694550336836
H 0.6218692658681272 -2.0165378747317346 -1.2253007847326307
H -1.6842894660284744 0.05738041706162547 1.7468800042403567
H -3.4233614327745667 0.8445224467102909 -1.5263458937246979
H -2.271779488603011 2.3568154760581015 -1.2068384844844278
