19

C 1.7738369903521904 -1.1485284928025195 -0.7325589252906036
C 1.1810509321524203 0.13600938556930733 -0.23534978084236652
C 1.882994401911348 1.2363173144744202 -0.31368342654344045
C 3.239210521495497 1.3389693954453332 -0.8589857774663403
C -0.16445813199602427 0.0828059686002422 0.31513580389437673
C -0.8541105454967259 -1.0443507135757144 0.3830684320890071
C -2.1810714435022804 -1.015484487397231 0.9418043811392343
C -3.0336882937131118 -0.2240924843820761 0.3551563382674292
C -3.8375633102827496 0.6197877877662582 -0.26711072213600606
H 1.6508021940517463 -1.9432400911341428 0.008623206993315171
H 1.226861211137652 -1.4436025853706065 -1.6450463703310456
H 3.3293897172972784 0.814774182421612 -1.8480846790347234
H 3.507045825827287 2.400306915637314 -1.0123928854412831
H 4.009409973842965 0.8756055780052467 -0.1919291937373876
H -0.5704515392954718 1.0308797246553358 0.6690377389203946
H -0.3891379414444645 -1.946109280968033 0.013602638094918212
H -2.5640391250743075 -1.5563820708829614 1.7750807505370831
H -3.8354413268835073 1.602442338882237 0.11543997703579023
H -4.37064011038346 0.18389161505555077 -1.0658718466956136
