45

C -2.639618614472864 2.396043779642484 -2.7975398878336475
C -3.357629985956779 1.1013114371565942 -2.955183951636663
C -3.857326919320266 0.47731128554362723 -1.9022404685158765
C -3.706876543006524 1.0581960667437627 -0.5700184911028563
C -4.8146432717787135 0.7001308418159781 0.3547926525799882
C -4.264834215017982 0.10334309197469774 1.4116505709650686
C -4.842591762131727 -0.42284069492179005 2.558308212154547
C -4.02193603215269 -1.0007657176943332 3.5242384425245725
C -2.6604166261199 -1.0774046894770897 3.39967685570672
C -2.087886143469956 -0.5414116589220827 2.234805975783414
C -2.931991706833407 0.03734251825838384 1.2719767037145506
C -2.5016834255236806 0.5668031010580338 0.14925833705276037
C -1.0583961458849276 0.5514239811197942 -0.11108051466855466
C -0.19772740315468737 0.02866647567604512 0.7385518063050093
C -0.7190734709499813 -0.5512981314450366 1.9780677505718347
C 0.327633380518793 -1.0573440323946155 2.7563524371547476
C 1.5354609724890722 -0.861452738390254 2.1303350266926366
C 1.230270998906195 -0.1966816385995346 0.892198821985403
C 2.0939272507684494 0.1567191426824945 0.02335141299481194
C 2.980826873694043 0.42132595913443943 -0.9046822402020352
C 3.21244556832123 -0.6336959647796135 -1.8733163365432326
C 2.9416863186367403 -2.021491275728922 -1.3487150877064134
C 4.644290392831402 -0.5956885279371128 -2.2790522520413563
C 5.413110649534966 0.4063320096357969 -1.9476924230062749
C 6.139381189394667 1.280544148523977 -1.3108811556388746
C 6.917318556337963 1.985206120446313 -0.5351037505128439
H -2.49440501158861 2.6028937223389077 -1.7109863101614022
H -1.6157726759408806 2.238489238939618 -3.2343547620139335
H -3.439281881029657 0.7163969234106563 -3.97044238867155
H -4.374931930961217 -0.4598679074159223 -2.032179173296199
H -5.8586040423689365 0.8813831089999602 0.21123245326550139
H -5.902113612437528 -0.3886886225814988 2.7050514535900034
H -4.457306935038136 -1.4186799972464685 4.430110953007297
H -2.018006937134953 -1.513037025833342 4.1228631718292315
H -0.6594227795829852 0.9710827933782907 -1.0124318998025075
H 0.27926376993596214 -1.546482482449017 3.7220637789633764
H 2.4697088604493853 -1.1795421888909308 2.564204912609529
H 3.4007679091839527 1.3827672171427525 -0.8038283908134453
H 2.6183626734461782 -0.5267486203516719 -2.818156830537904
H 2.71454954003922 -2.711756617094251 -2.2050999088072274
H 2.094478476898741 -2.077721069224459 -0.66639183330866
H 3.817805666705928 -2.4664246623184902 -0.8326987953096404
H 5.105385531870505 -1.3849619406936058 -2.8579785824968558
H 6.71694984686085 2.1971423136424524 0.48875363336907096
H 7.828853645031036 2.373130927124967 -0.9877899281925983
