14

C 2.4485832815501274 0.051833520302337927 -0.4923470075491877
C 1.607484090665045 -0.11810552380893811 0.6901132338650752
C 0.33035987445574355 -0.15507025070452882 0.4721356661005986
C -0.9273138139998015 -0.1978415133866493 0.14201914718673692
C -1.4615871188321674 -1.5101644122229751 -0.1567223293260456
C -1.5991031338960948 1.0921055985683827 0.12363935916493514
H 3.5098657030291682 -0.2230936404980572 -0.2751929931652784
H 2.4298882377573476 1.143286183592198 -0.7593431914298682
H 1.8657958316923766 -0.21692018375622774 1.7026081365645462
H -0.7190237437229364 -2.23866646428084 -0.4507610056464879
H -1.9650080255974995 -1.8994729038181783 0.7742426996791061
H -1.2710417947447792 1.811900130818956 0.8725128077798796
H -2.7027759580241337 0.8912129143576913 0.25984510386791243
H -1.5461234303324713 1.5689965448369854 -0.8981970308388931
