48

C -1.6061975865876474 1.9047571827466654 -1.8829359507821448
C -2.324179890622268 0.6700799488850594 -1.6333930506423697
C -3.7174127213757284 0.377779116187079 -1.602079713108468
C -1.5019699918938136 -0.33809769746307516 -1.3999634668919738
C -0.7820392788223075 -1.423534170931733 -1.1994015011509993
C -0.6749652374823463 -2.184369331291865 -2.4630510033453246
C -0.23427334475929384 -1.5912327056446895 0.05452095458176006
C -0.687140103079576 -2.2179151493691354 1.1401009563114706
C 0.18186454827538448 -2.1986837044740875 2.3052028706092353
C 0.6386311124793392 -0.9887946391225455 2.619722222875433
C 1.2807206928734554 0.15763512504925306 2.7517996507629543
C 2.5328532349341573 0.25076341702010246 2.0867658250898686
C 2.7372602573287246 1.2933327168434985 1.3334612848039529
C 2.9985267152023973 2.1990603139633174 0.399760139837149
C 2.414446237610944 1.9353818556873037 -0.9010763181294417
C 2.05399355678105 3.4016978358587457 -1.5157527057130118
C 2.6633910894657324 4.144183837873636 -1.5342097248754658
C 3.496453479486675 5.572017038823048 -1.694938309476877
C 4.684746517081062 5.4098695718180645 -1.1988150298888065
C -1.961059092388898 -2.8840323708816156 1.1737272763936257
C -2.872565270824642 -2.925877577606754 0.0055276900536292695
C -2.4158995180528926 -3.5175991977581296 2.276622599194732
C -1.7952016223395106 -3.6697414712347745 3.573593966897895
H -1.6157055398993687 2.602476647405534 -1.0065526324314455
H -1.8501834358245082 2.4217521700079896 -2.8207499702840013
H -4.390469656469213 1.1692186269948266 -1.2334000018829323
H -4.165286450939408 -0.24830461763693465 -2.361735052180177
H -1.686745122425194 -2.4839876671710677 -2.795968164374906
H -0.001055677152940405 -3.0420114696184615 -2.4147160520723965
H -0.24632239429884456 -1.5162028693203435 -3.258715474243183
H 0.7723696311322137 -1.1022383449298858 0.23274746446982092
H 0.54767730944387 -2.945555082021761 2.9089301425423812
H 0.7837478149753628 0.861290100605536 3.3400332640686003
H 3.3470352862414843 -0.43576039835918134 2.1092832698822646
H 3.5966147748106962 2.9958973219961806 0.7613334296232863
H 1.4728012132685584 1.4144702137322689 -0.8133799087191109
H 0.9235118014054904 3.255186415292034 -1.8776472517046423
H 1.885699588911201 4.7867459876838625 -2.604308404318498
H 3.022104033651081 6.344722539093491 -2.1298083841045674
H 5.390307830902227 6.277737310899533 -1.2119341205725638
H 5.0829771589781885 4.523458026746582 -0.7806338790207031
H -3.3223654191260112 -1.9492134583157004 -0.18820996987888147
H -2.47244446602299 -3.4962617467444983 -0.8256068077025777
H -3.787050864690542 -3.5580442104247783 0.3515909257475303
H -3.4152328373799 -3.9949689589013193 2.1339796993443754
H -0.9487376291929617 -4.443924763980765 3.50323051165709
H -1.4594552347924392 -2.743713739219788 4.03786477626678
H -2.573775498689521 -4.175003100353815 4.249183926527332
