22

C -1.5894394742159716 -1.7279963101519447 -0.5798307254036674
C -1.2985340611170935 -0.9130943181869128 0.6546558457287122
C -0.6692013306719086 0.3923296264884885 0.27102982311202617
C -1.6155160225887575 1.129016198024448 -0.6051560227068844
C -2.0490208673481565 2.3341329517874554 -0.2901056969349605
C 0.5984642199520226 0.10724563793029092 -0.5241664870890377
C 1.564249721368572 -0.6669756050118141 0.24760318681237206
C 2.8369395666530663 -0.41961668208144903 0.007702792941150287
C 4.066415199668179 -0.09517354931875462 -0.27866705346565546
H -2.684699665132302 -1.8538115128904369 -0.7244893521507697
H -1.102316511224884 -2.7247163781653154 -0.5350219310504888
H -2.230884629543929 -0.7782907263064107 1.2167225730732227
H -0.6087044639809793 -1.4801945477216856 1.3460598980841556
H -0.4512415424193325 1.012703491187507 1.1572531184507815
H -1.9561699096699232 0.6647251889941395 -1.522898157498076
H -2.7397130767816265 2.8623082276201006 -0.9374610001897604
H -1.753648035574593 2.863749549229041 0.6104665414180428
H 1.0161779132628062 1.088241264799829 -0.8320915065643486
H 0.27381485090554525 -0.39754909060018795 -1.4675717061075213
H 1.407743109663244 -1.4081527887909786 0.9818476317336545
H 4.486899370767285 0.6828508046394021 0.2951730787939371
H 4.498385638148086 -0.6717314315092832 -1.0764631489051442
