26

C -0.5427983279580034 -3.3824850515580565 0.7373145989131658
C -1.3292108930121327 -2.1340127330858185 0.7996842480142552
C -0.8579296311949907 -1.0610141314242205 0.1737286739933659
C 0.43796208825749794 -1.1128852347458065 -0.5771753158854296
C 1.421681480669446 -0.1636685633135437 -0.04845451799603281
C 1.9059834375846827 0.7863188171214871 -0.8365773438510803
C 2.904179770153634 1.789290520025287 -0.3865317367469279
C -1.5380564505517693 0.20369450048872925 0.16785486256377355
C -2.888070959148521 0.4108592522273921 -0.2595690054628408
C -0.9739955618759235 1.3109920521847527 0.564802927975392
C -0.33661633711945677 2.1910336101570125 1.3126822146270007
H -0.40742161368303426 -3.7352967206035785 -0.3001535787175561
H 0.4227414581043139 -3.30116211579042 1.2924084730747347
H -2.2640577246604505 -2.056221323658228 1.3283205345153166
H 0.8442707956331502 -2.1304552194881743 -0.45167245627674035
H 0.2988037445612298 -0.947191201914108 -1.6465526599262865
H 1.798003233472246 -0.1797106470512426 0.977288473242892
H 1.5754521123156349 0.858437517755855 -1.8636335875271675
H 3.1781869846754613 1.7042332271779983 0.6645261829121114
H 2.5383373400897513 2.8324777313402816 -0.5445626542440258
H 3.8025142930402462 1.6481574321242252 -1.0413367780097043
H -3.020738755939679 1.1741505215630603 -1.070470397560217
H -3.504954896567867 0.7458665058496968 0.6242854358206538
H -3.316237573407988 -0.5265999109174694 -0.6678117991571917
H 0.2824522155832646 2.7786324244381158 0.7348285139183514
H -0.43048022902075145 2.296558741096931 2.358530721520344
