11

C -2.18820470589113 0.18723948734801438 -0.5085260262841902
C -1.210203122076697 -0.7270470855769373 0.057749593757136994
C -0.04376775018071991 -0.19189450956766277 0.3881626637804762
C 1.0924660831832909 0.41372311972569487 0.5982705587887962
C 2.0201436893755575 0.4410990825603959 -0.522360726735675
H -1.7290405817732097 0.9576399574546559 -1.160088655050865
H -3.011971375349501 -0.30885588924256857 -1.0637317005992284
H -1.2535595358404634 -1.7589466542126777 0.2589130128405371
H 1.1919051915566643 0.8173694822844311 1.5816909371354282
H 2.1059096248727656 -0.5650633733857805 -0.9639051265122207
H 3.026322482123555 0.7347363826124119 -0.1689387612511675
