20

C -3.0961898788946693 -0.18316599875316444 0.6735215499369263
C -1.6767448026368434 -0.6477388448960545 0.4389417249914889
C -0.8078802539088731 0.5619421845264975 0.17760887139282308
C 0.6035074238479115 0.19418335237190318 -0.06381505320874321
C 1.5744435613700722 1.2387337030285352 -0.33132911544828697
C 1.2644246525324723 2.517939700116707 -0.37190918156714425
C 0.9922516039519277 -1.0537836644091036 -0.04075145588505307
C 2.3980113899129916 -1.4462157249782908 -0.2791223332149933
H -3.3318969471965296 0.510821951741757 -0.18473846399578644
H -3.76944107556582 -1.0607989458503708 0.5150894436238223
H -1.6726136166293042 -1.3370859464947196 -0.42858925498844586
H -1.2934109624280468 -1.2342280304611761 1.3188665348940443
H -0.9031584830040629 1.2892430212500103 0.9895966275401944
H -1.2252316972924833 1.043779637209532 -0.7478227256047416
H 0.25799695485046337 2.8669064193343186 -0.20646269425601746
H 2.055244136130531 3.220787889022175 -0.5782422458904498
H 0.2728939970426125 -1.8258911339879882 0.15703657741008029
H 3.10545527343663 -0.6737721200415819 0.1269798699386162
H 2.583507296518449 -1.58699723732045 -1.3698658014092782
H 2.6688314279625645 -2.3946602114084525 0.20500712574096128
