16

C 2.9839483122590464 0.005329671708125562 -0.4582129174962417
C 1.8461855399168767 0.93007946411939 -0.47063080654093403
C 0.5713393351666451 0.5867964120890198 -0.47194531397397127
C 0.07209669271298053 -0.8046464338771693 -0.4609827328476139
C -1.2820559953126636 -0.8757185586255295 0.21756675001260334
C -2.304199399048126 -0.052891180462487274 -0.45043564084605425
C -2.5931420695047813 1.1904378167954555 -0.11753449230950849
H 3.052956716724717 -0.6480593151473818 -1.3351053071410122
H 3.166389067758126 -0.49604375265599704 0.49977774714706646
H 2.066993819633354 1.9929364310132485 -0.4795682207519897
H -0.08767293954961451 -1.1997619418495955 -1.5010358206995265
H 0.7496768087542997 -1.4788010325754757 0.08327836065914086
H -1.6274061890450933 -1.9407684732517139 0.16810482709069968
H -1.209481926322061 -0.6329204230480457 1.3043830513685013
H -3.3476747613630327 1.767287701637705 -0.6264261376285449
H -2.05795301278064 1.6567436141304426 0.6953289385578999
