31

C -6.2225270682910025 1.9528555787744155 -0.3012886540234049
C -5.645711878320843 0.738507738725576 -0.9331932994721759
C -4.495193402517921 0.27841888041282337 -0.49145845324329973
C -3.7836565984117962 0.9550921101804818 0.6156092635071583
C -2.4349375360434045 1.4252021422855754 0.2022079058157346
C -1.3826837893800255 0.77835583075427 0.6538025706873934
C -0.4380597601458751 -0.06381569073340891 0.921098139076873
C 0.6610716108060181 -0.7081825560392631 1.1889164733167839
C 1.6066851971857157 -1.1733577994991709 0.18247386896253046
C 2.3319999025094837 -2.2734986094982537 0.13778225895306126
C 3.1497831667082963 -2.3082665829600213 -1.0921969153566442
C 4.597516245519199 -2.229451574931394 -0.7339452785179403
C 5.133291352517845 -1.106575665494894 -0.33240174847882464
C 5.537950289902868 0.032835344951912815 0.11219499508438503
C 5.87013732778156 1.1992209296681364 0.5610557292370612
C 2.800737958491898 -1.055105704139824 -1.7788114103228188
C 1.916821014775096 -0.42783835293553274 -1.026315263021006
H -7.271055053298638 2.0878446085563978 -0.6785402269964254
H -6.360756839589137 1.6900778273351278 0.7887135508439841
H -6.167597213236207 0.2388159410565443 -1.7481148509327211
H -4.056188135738161 -0.5986134202455144 -0.9314518996619336
H -3.7211322461144354 0.23177373727251052 1.4549778019293902
H -4.334817903946402 1.8496773758461966 0.9670752350512041
H -2.37098170842788 2.2679871798620153 -0.44402499533602674
H 0.8749399370655441 -0.9048417763219843 2.2294847397746267
H 2.278612115424376 -3.009974354590326 0.9408717412185609
H 5.177027178345407 -3.1216587188229523 -0.8177142558076167
H 5.492074870282061 1.6250934170712439 1.4787612451261223
H 6.571384805562784 1.7810924129794985 -0.023452743306487365
H 3.2012241972782003 -0.6965174277318879 -2.748674226434704
H 1.4840419633050559 0.5448471782116325 -1.309087568517549
