20

C 4.2397265433648625 0.6310663109955112 -0.06428443729668543
C 2.9996140868534513 -0.09491310522170107 -0.3558285118448433
C 1.8837958308437641 0.09821399962460835 0.3314163105679675
C 0.6517944678319021 -0.6153236347949768 0.05041584826017482
C -0.4004259720703999 -0.3452151727709238 0.797232797759236
C -1.6584960959714263 -1.0597291015220986 0.5261408621947355
C -2.3717880184207347 -0.3091086598838336 -0.5863791913034542
C -2.658960104933341 1.0998481346954123 -0.1648975962676159
H 4.021395667533223 1.6867378090627678 0.170622451141014
H 4.776646051118914 0.18115727608341792 0.7917842564337663
H 2.9349961995624017 -0.8372063318458668 -1.1613889407153961
H 1.9399445502926373 0.8415661660133287 1.1417213918394615
H 0.6304944285376117 -1.3368071090221074 -0.7500914440793226
H -2.349216223665501 -1.0338302577185892 1.4122224869338973
H -1.4777347084722647 -2.107073653157967 0.21320170088781915
H -1.655446568924703 -0.27758377344741864 -1.4388835804429085
H -3.2728727195659877 -0.8674965396087416 -0.8659024302547973
H -2.9891755778369986 1.1414298525689823 0.9047387226673246
H -3.4824717298454644 1.4769691863001724 -0.8385249149432342
H -1.7618201062318595 1.7272986036500235 -0.3505117503860018
