19

C -2.00841123200012 -0.2027951496933082 1.822183712040424
C -1.610380866790189 -0.35437132554866485 0.43235664503509913
C -0.35120540065775513 -0.6495595969274842 0.2508957666336425
C 0.9547222334373014 -0.7896987022921707 0.06892324972921712
C 1.7261647546822232 0.4281299322674268 -0.0474015728237251
C 3.0194402459067704 0.27315733768832356 -0.7507520561156105
C 4.158178805248657 0.3342655997017051 -0.07607669806331774
C -2.3709069323059584 -0.23015779398366346 -0.7598546784587014
C -3.672635631910701 0.07194594209756337 -0.6442248911172935
H -2.8737785843543424 0.48891999465381125 1.8946396651433062
H -1.2066960737651515 0.2625217316841469 2.466673021235636
H 1.2302839266700567 -1.8012932003808377 0.037261530301996165
H 1.14449787369153 1.2820130359043997 -0.3672045237464928
H 3.0482339401188288 0.11107998704324641 -1.8053818765266396
H 4.175106967576113 0.49890181271236117 1.0063319454398778
H 5.117973444179776 0.22481546788797746 -0.5616423810310734
H -2.0028523631972206 -0.3549549689938119 -1.7412394274741145
H -4.151736150508006 0.2214861246680264 0.3221215843468244
H -4.32599895602203 0.18559377151094059 -1.499060773357968
