16

C -2.6472004891516625 -0.7985703327381604 -0.11313055911885708
C -1.2853538607353006 -0.2223153398799627 -0.04130811839416719
C -0.1353748324264877 -0.8514978626661991 -0.20266095569494263
C 0.9839842169397346 0.06952571478190889 -0.054614451422857424
C 2.417909178354403 -0.26106630653313045 -0.16548477746369603
C 0.47573135985888193 1.2632830693747403 0.19890760111955402
C -0.9907617014439517 1.1961515094957564 0.23170372291102445
H -2.728274712819873 -1.610391470765471 -0.8799622022167856
H -2.883540985450514 -1.1853803752753453 0.911556205900095
H -0.01188070151216412 -1.919301866942116 -0.41901522135834046
H 3.063726362431295 0.3918692200931545 0.46558319959263644
H 2.6360777017669927 -1.3055500863554177 0.1556979837539349
H 2.8141161160197683 -0.17137757781124044 -1.1956963570699564
H 1.0897462048973263 2.145865003648574 0.35517947568588615
H -1.3165099731954448 1.4288386765817336 1.2765883086294938
H -1.482393883532982 1.8299180249911535 -0.5233438548530304
