12

C 1.87121806427968 0.32800203150232654 -0.564568425124027
C 1.5957749396176257 -0.4497950621103816 0.6600072173895359
C 0.46180624943953796 -1.0880445473188614 0.8101528433417866
C -0.6068518246054767 -1.1023856100552853 -0.16849833453543114
C -1.5153849466439804 -0.18032931894918017 -0.02880933227438402
C -2.3975588903973586 0.7732439957567538 0.17738143157484387
H 1.4522486660784661 1.3637135784785956 -0.4832911154913271
H 2.967456037243864 0.4408971258388896 -0.6901139852304521
H 2.317876809301985 -0.5141684203941207 1.4625861219251985
H -0.7536052798308422 -1.7557897593918135 -0.9804472064014627
H -3.2046799259680556 0.5011252180132217 0.8150216222587989
H -2.1882998985154654 1.6835307686298442 -0.31624758753537646
