22

C -5.846157688666344 0.43384794101706287 0.17597297651410274
C -4.780356455996534 -0.20029836560508954 0.9442082126555046
C -3.7082538440433948 -0.53280981978834 0.261034284553217
C -2.6398060549288935 -0.7360711203492987 -0.4730288333168369
C -1.7116459335405705 0.34591914814753333 -0.5480281854090259
C -0.5505344201907 0.2821334146804947 0.023617942429804136
C 0.5311566715929185 0.22808410548511532 0.7475513240055883
C 1.6985589015261768 -0.06605684670303957 1.24695099935231
C 2.7362283834269507 0.9875086031543554 1.2653924677719175
C 3.9045849099166374 0.6899619342031907 0.7156290813051954
C 4.911985724273072 0.11986384074175697 0.11237099630681573
C 4.981682354265026 0.11121683664239077 -1.3528817708955894
H -6.065416724410401 -0.23065842460689528 -0.7079699844666346
H -6.804518176592754 0.4751575336691251 0.7690836243146447
H -4.719963215238132 -0.4404499686816593 1.9680319476555295
H -2.615360578577828 -1.6904578603373057 -0.9161479731606812
H -1.9528670150375294 1.2588161131973536 -1.0891871493623808
H 1.9574494661880333 -1.0356126529858527 1.6502900471085975
H 5.667483970612529 -0.3349393336499165 0.7216250536680344
H 3.9869348763218286 -0.014593040835453087 -1.8455546993765914
H 5.606350522039355 -0.7318049165204932 -1.736837436908485
H 5.41246432706043 1.0812428791250217 -1.6851398331681962
