17

C -3.0001989941400704 1.2853967897451621 0.19522589305665816
C -1.7732079276198067 0.6423640771452167 -0.3574397016144714
C -1.3603336086600044 -0.5770665148429415 0.32104067138187714
C -0.1847453930925945 -1.0593708647153994 -0.031151743860968705
C 1.0309133124231518 -1.4030162198911937 -0.3644754341492441
C 2.1072394937556913 -0.8056698802108987 0.41599354415213036
C 2.6562649510740277 0.4653028646490852 -0.19606432334783294
H -3.1992105703458686 1.0440656650472653 1.250043822975059
H -3.9030691329710048 1.1051796312336686 -0.451307283921278
H -1.9776030510260887 0.3831763419404986 -1.4338690037339512
H -0.9352597750535184 1.3747241331390754 -0.396677596239542
H -1.8431516875064833 -1.1542155821532916 1.0598202144547006
H 1.0692474537465277 -2.079460452575646 -1.1712586837175085
H 2.904109808281059 -1.5542250831293027 0.5696340951071935
H 3.750767692433625 0.4615430210356953 -0.011324766830151024
H 2.413386324200643 0.5347170461968271 -1.2832939210311476
H 2.2448511045006807 1.3365550273862286 0.35518202018336614
