12

C 2.5627795419623225 -0.4719037535232685 -0.2353368561273489
C 1.504975976438532 -0.11186061745597307 0.7417204783186547
C 0.30236806866031674 0.011262966309387142 0.31131140317236244
C -0.8933653960014243 0.16900042147073985 -0.17612868508446083
C -1.893066268736507 1.088018530510945 -0.7785811364471283
C -2.180447837850177 -0.36565615181049627 -0.5269341837468816
H 3.110688046482877 0.4879028146333079 -0.4694130775121938
H 3.2981944708887054 -1.120884944133725 0.3143730175811409
H 1.6770068647227618 0.05412635776204359 1.7922103696279434
H -2.2509168720735984 1.8607927718147128 -0.07473737389778508
H -2.3635760005326523 -1.0018187107237333 -1.399508752452585
H -2.874640593961172 -0.5989796848539528 0.32863753918938116
