14

C -2.245045921333984 -0.5693690403428572 0.306581746263209
C -1.1157214156073525 0.04128538554765851 -0.5094478474735521
C 0.0470893808891522 -0.7929597723618148 -0.7665232879256711
C 0.8008697986621457 0.149796528939864 -0.015048399034164215
C 2.2703632677515198 0.2523190470035464 0.37600281734443103
C -0.20500480907831783 0.9002294798142226 0.22513184226248611
H -2.5977939977149695 -1.4589883309681195 -0.28955434916272743
H -3.0803353679179994 0.17597001930493067 0.26701144919230807
H -1.504939106760865 0.46382114712958805 -1.4794907249596594
H -0.03216976380860288 -1.7924257615318013 -0.2880539057239932
H 2.6021084106981007 1.296678067291916 0.38516950592841676
H 2.8994064096709913 -0.2844589561740421 -0.36901015263776654
H 2.4411916650120324 -0.23913383088648357 1.3565480640857641
H -0.28001855046185525 1.857236017233413 0.8006832418409168
