13

C 1.8950348110020943 -0.27904275100768 -0.1641550425997515
C 0.5550527038271853 -0.3353859348038253 0.472604504904222
C -0.049305173836313686 1.0741924485299892 0.5738733299149681
C -1.3991943294271554 0.36257783084240275 0.3939825722567009
C -0.6115225580358896 -0.6466749375091704 -0.45680655347632865
H 2.3885934821385546 0.6953466302495135 0.07209491931468667
H 1.9214745688104728 -0.4922676751707835 -1.237886810694406
H 0.4464406824028906 -0.921093589105052 1.3949190399862286
H 0.16911451478407372 1.587557653336845 -0.4016830173300034
H -2.1395204112773136 0.9235652556203429 -0.17680801586566589
H -1.7064073558036226 -0.06748429985463952 1.3596615632973947
H -1.04933778288483 -1.6375517176232333 -0.3561444991872243
H -0.42042315170014327 -0.2637389135047052 -1.4736519905208112
