36

C 2.3520132504667965 -0.9995071691217841 -2.0877423191724995
C 1.9303012200579575 -0.4569726885446099 -0.7555960738190164
C 0.8883685067700384 -0.940603363206506 -0.09489625318504692
C 0.47628483472164773 -0.3969456983164692 1.2263181893580444
C -1.0197420286499426 -0.6244834177694318 1.430055193288525
C -1.832915079527354 -0.6145917054555855 0.41747970176207727
C -3.2225339834343476 -0.8007961211371769 0.39504375687353077
C -3.783938818520936 -0.727109727611907 -0.8372306634536846
C -4.330466939689716 -0.3899035215616771 -1.9822828494124942
C -4.708198077146171 1.0396755779946398 -2.1328067145817564
C -4.134298404891229 -1.0517883102686985 1.4455893489856615
C -3.9914688134589 -1.1887860396181062 2.7405750049776003
C 0.7122381790652728 1.082444237129168 1.2995026196282886
C 1.7709912459545778 1.54057950473367 0.6487524373563989
C 2.684859042350384 0.6703034291327734 -0.1134771117566164
C 3.79951288707151 0.15248315111276176 0.72970823070186
C 5.024979267049657 0.02907190391226056 0.2684419233571586
C 5.39894076994423 0.39604731271564797 -1.132151814583185
H 2.0962325432248137 -2.0694913057429134 -2.183746446822237
H 1.9987063976535375 -0.37250698233526874 -2.9175423014520208
H 0.3285138848848423 -1.753493985633211 -0.537480352906814
H -1.2448229321895996 -0.7779998304869362 2.465354395995918
H -1.286457090251707 -0.42695211879820266 -0.5569472463818964
H -5.590543995668359 1.2109571258393204 -1.4823791754429718
H -3.9008204329872 1.6974325226337719 -1.7658574022887
H -5.020339214151313 1.2775185918415037 -3.171764020463664
H -5.230037035245928 -1.1677068367593852 1.145649202598967
H -4.894144278188734 -1.3884974048058039 3.3770366794498217
H -3.1106359903994982 -1.137866176909499 3.310345749808042
H 0.02488484084480072 1.6890371936137158 1.865199747486239
H 1.9703101942040284 2.6029914994071004 0.680900783807328
H 3.5749245094859288 -0.12539654635831307 1.7498552435647994
H 5.798511226446347 -0.35085033699651136 0.9176510376314281
H 6.447800125116042 0.7122044077031743 -1.1440079595468673
H 4.761150117391727 1.2400878927952432 -1.448246292109989
H 5.261840071697404 -0.49560708453681157 -1.7693042492523485
