18

C -3.2588310060057757 1.345646625382724 0.7980561408729921
C -1.8829201178700243 0.9106849689515247 0.4721449935003249
C -1.6510298014654825 -0.3633649202751045 0.25186449364107477
C -0.2634807194413845 -0.7876303998208549 -0.07483774798301775
C -0.07245658252730935 -2.0701785111701296 -0.28837400346654357
C 0.7930541332425011 0.18250853610639475 -0.14558372764822486
C 2.0333794642994247 -0.11212010533025486 -0.42597095400700835
C 3.1062528133280067 0.9240383776105794 -0.49078667600407205
H -3.946147896896261 1.2595917001043488 -0.04258903193444661
H -3.634635863589551 0.9363493662648924 1.7496286755775676
H -1.1072950635198706 1.6420349235492526 0.42291495258910516
H -2.4276828625189544 -1.1004530236581052 0.3005517132683109
H -0.9079944064173877 -2.7458521995830214 -0.2198600437532111
H 0.8905741793887897 -2.4800395806038673 -0.5310136667325425
H 2.320727043206994 -1.115546882969055 -0.6196681334588313
H 2.5867388274008074 1.884054723443936 -0.7500992045700255
H 3.8186702144839058 0.6383445430720931 -1.281448485325072
H 3.603077644901496 1.051931858924673 0.47546130510201884
