15

C 3.7796494382168735 -0.08881607157333074 -0.025758322576574226
C 2.6768707446811035 0.6475726427832459 -0.617775693728224
C 1.4923037621733604 0.4579205469598288 -0.07686299262982799
C 0.3446890700308738 0.11425241412633372 0.4687321647032338
C -0.31451443241211324 -1.0097751322521402 -0.1069863083869772
C -1.6270083991992237 -0.9857380995411963 -0.2981445031008157
C -2.420188925316236 0.18043830019305063 0.07261147449242879
C -3.7116651123312243 0.24365712544947668 -0.09878287519015609
H 3.4629034595078605 -1.0013267804812052 0.4711145203649196
H 4.291112435016106 0.5646252806377419 0.7152831761156697
H 2.6548515874230505 1.3232430780705744 -1.4246833572801354
H 0.07089729220442137 0.7364079897606366 1.2766182185190256
H -2.1619950809977073 -1.8252105105842882 -0.7346919989431171
H -4.325961496197551 -0.5205066657951031 -0.5156711468600639
H -4.211944342799687 1.1632558822463892 0.21277985125742008
