29

C 1.1213728164607342 -2.5198109265139337 1.7767596900479796
C 0.46914439039000283 -1.4550137756423152 1.0444173695429606
C 1.249057687599543 -0.41755229811707645 0.8191959832328544
C 2.025637399395412 0.5854820253873945 0.46119902198397356
C 2.6975953293118264 0.42980981130361956 -0.7762015634626939
C 3.980513806457609 0.6933651192648808 -0.9821379733566036
C 4.797741171741401 1.1916867635186357 0.15740721524381984
C -0.8771155666461963 -1.358116881256351 0.5309781973414334
C -1.1820306721794844 -0.08704471026936561 -0.17885701364844794
C -2.559090153227987 -0.019481870918946872 -0.6889746927177035
C -3.7378273268326625 0.669773294572446 -0.6290056834497486
C -4.525817225697156 1.8126757333533936 -0.05240663459912617
C -3.6384610360750482 -0.5233973907716785 -1.5267760730861801
H 0.7988355297829591 -3.5501924253246626 1.461109821514647
H 0.8021912713046352 -2.45805279942439 2.8566654340553908
H 2.0184818374018456 1.3580863533477303 1.1731445323775354
H 2.137898383011933 0.06763285265131685 -1.637034079037344
H 4.464584102590291 0.5657194709557513 -1.9332192851021845
H 4.273722460852275 2.0361907145611036 0.6481241874004651
H 4.9455786939235855 0.3337639344465663 0.8479901940778566
H 5.77435141019541 1.5800156629956512 -0.1806045944754259
H -1.1716974881760718 -2.224611763678322 -0.13156683529177035
H -1.5954822214280893 -1.4391883960076546 1.4001601995905453
H -0.4139544129801814 0.11796371841921266 -0.9284707994741428
H -5.1908424513765885 2.1815850437706836 -0.8317967557860966
H -3.8185925786902692 2.6522202711160197 0.20623106731463708
H -5.002040515673648 1.4960980370847332 0.8780175740266873
H -4.109535235405645 -1.467597312146443 -1.1878767080262906
H -3.7342194060307263 -0.2520082566781442 -2.596471796236954
