16

C 0.010302614861356063 -2.232402183548769 -1.2389440550297193
C -0.838564980351938 -1.2526658417243248 -0.5282209556893313
C -0.2524629804280478 -0.13632024613545973 0.0630497007313178
C -1.166284260373177 0.737702894475366 0.7191124038315642
C -0.9859224001305157 1.8355904557634435 1.3563297702287391
C 1.1538758843541363 -0.014407668344165495 -0.06127383837267695
C 1.971322362716575 0.8649574563050135 0.35441486431353736
H -0.48363719050980114 -3.211281273580062 -1.2162014737696858
H 0.17779857213902647 -1.9427505353320011 -2.314444401588162
H -1.8950978065083617 -1.3392900979054572 -0.4318640217936205
H -2.284628434632309 0.4144756568725354 0.6813868591012373
H -0.05985771713900117 2.3107143831524533 1.5127794974938709
H -1.8731564652395236 2.3429649200917595 1.787379146317992
H 1.6562699333907047 -0.8573328500583368 -0.6406554876358935
H 1.7996065516122202 1.7407794322301398 0.9071627769482443
H 3.070436316239293 0.7392654977011572 0.12387331469082634
