18

C 3.6792643940717022 0.7413102258868273 0.8825235517295551
C 2.436317038200097 0.3520063992620308 0.16683350495227386
C 2.518206131689726 -0.7247003248864538 -0.610638155585564
C 1.4314697756384236 -1.252399325438218 -1.3765074380001334
C 0.2867513593572064 -1.3507302326768462 -0.7462012998428186
C -0.8470639559068119 -1.330380986483013 -0.064515623806219
C -1.608608255573085 -0.09927674197059681 -0.15349007828021832
C -2.7841240751858107 -0.1345037896878196 0.758156473803832
C -3.7058208645204096 0.8459878584796033 0.6686346002712971
H 4.383285974393611 1.2661397269182697 0.1983031317531622
H 3.4884099566118874 1.2831485231062243 1.81762033131305
H 1.5197366827952548 0.919047819259199 0.2779769854665638
H 1.3934860373101128 -1.5801775342868054 -2.379717938865549
H -1.0346949152061886 -2.225361625891181 0.4531664536425593
H -0.9940897306605269 0.8083043858593303 0.03953567183772088
H -2.007558826560413 -0.0071237048001242765 -1.1919413388486686
H -4.567289137667276 0.8422711114147343 1.3190946820659089
H -3.5876775887874635 1.646438215934831 -0.05883351360674044
