18

C 3.5528849373678284 0.4799864122029543 0.17392149620195568
C 2.109424050373206 0.6104312141008417 -0.1388030385309489
C 1.352328866706917 -0.468420079506249 -0.053587513556841083
C -0.11257445849674508 -0.4593960704997935 -0.34417503777360153
C -0.6491635155243278 -1.805865087939852 0.10073000267333601
C -0.709095184477675 0.6562966278342663 0.38612186364587836
C -1.96263425156555 0.9245541628303553 0.13134420256878046
C -3.219430841685757 1.1156206469574619 -0.1788311467162534
H 3.8702821659974678 -0.5669591173422527 0.1261128486905127
H 4.143168944583113 1.0973271031473577 -0.5327156635280488
H 1.6633314287202186 1.5552547260657694 -0.431984919734619
H -0.31906931137768874 -0.38902144909851666 -1.4396557609297969
H -0.012664067436457377 -2.57454381456829 -0.3729986130688224
H -0.4476312129166195 -1.8717397146824413 1.1970420881446864
H -1.7013923891952172 -1.9600433519931282 -0.15742256428867513
H -0.2643737158099983 1.296048142260483 1.109917103560561
H -3.914099879917817 0.5779145049943176 0.4144924633650263
H -3.3792915653448676 1.78255514523669 -0.9837473608016516
