36

C 7.570069883793133 -1.3828629256882266 -0.12958898232089905
C 6.138374017692792 -1.6698196200828483 0.12111699626683124
C 5.15741428886254 -0.8400820588380918 -0.1712329183680967
C 3.7708999118488706 -1.164042834419814 0.0923703365425836
C 2.7892720433780034 -0.34582301514828234 -0.19473095958921527
C 2.9644937184720748 0.9510475924366647 -0.7959735610436657
C 1.8963595540273002 1.697509635061741 -1.0433555386675109
C 0.5137900508003292 1.2361542165831414 -0.7180322144894941
C -0.3954581805229738 2.4274667421679523 -0.8253643312943351
C -1.7821625391490965 2.0630272664656055 -0.5203698285219664
C -2.9167437546040516 1.758297341034594 -0.24996154150261624
C -4.304509073639731 1.3614771500840561 0.09375032798918145
C -4.185372703067913 0.22179736060282654 1.0767226261574314
C -3.449886216449271 -0.9896155220708335 0.54557462688283
C -4.469663901959912 -1.8419433344979503 1.3133966645228115
C -5.436594848881849 -0.6619274161158856 1.1410308670123042
H 7.817953186020144 -0.33179207553209805 0.14664068722901036
H 7.745338539421858 -1.5581031855405736 -1.230690589749771
H 5.883765256181324 -2.6159042734881086 0.5704862423143027
H 5.414656372141692 0.09977729548336246 -0.6179689086591338
H 3.558057087573645 -2.1419424951859987 0.5525564897331843
H 1.7786944671576714 -0.7130940322878196 0.05668195479480496
H 3.9218905691278647 1.339694210339744 -1.0525519119815308
H 0.5637473042055414 0.898080769523751 0.35631957123120417
H 0.20125514706891334 0.3720914037856343 -1.307057882211603
H -0.041805537482452436 3.182285058838242 -0.09270122139243145
H -0.28316461153593186 2.8825955192342603 -1.8257948353630686
H -4.745001556059711 2.2517366511023136 0.5833012244084623
H -4.885970322501466 1.0965124724775026 -0.8057204549261945
H -3.817817682600228 0.5514747994298774 2.0502454392447937
H -2.4117369068385575 -1.111820274558066 0.8932374327558781
H -3.6241170763793336 -1.1386268350475908 -0.5392107292736856
H -4.171356279974512 -1.898276184355491 2.364880844382798
H -4.7696230588246475 -2.7610454508031808 0.8168290193264178
H -5.914356030611106 -0.7584098548894279 0.15408133410728217
H -6.080691116633453 -0.4658940961246716 1.997535265618238
