18

C -2.8511333473928024 -0.23026920169288984 0.6570213120294498
C -1.4756955950094317 -0.3006580835248895 0.008351789491133731
C -1.6162014850782767 0.23963151832684101 -1.3925423993177277
C -0.35998962380176314 0.23413820944441532 -2.1468190250362316
C 0.7596370497877012 0.42239112163699183 -1.4765921733285927
C 1.7155450679175226 0.6131408810623586 -0.5849243526239538
C 2.208431201007007 -0.5672846828005657 0.10422532443606851
C 3.161323061937176 -0.4302510681312024 1.0026056052330428
H -2.7839665754683236 0.1371957851267456 1.6997543987549089
H -3.5366602269261955 0.44617113634475797 0.07877562249904464
H -1.0539712735215894 -1.3192738687122467 0.027873562733297694
H -0.8247476479586769 0.3785119345827302 0.5821032550230303
H -1.93705251877726 1.3113020796227706 -1.2967150158050498
H -2.4497552709444346 -0.2698567007984486 -1.9175484237493319
H 2.0413375005911214 1.6179329399648705 -0.44574415120519173
H 1.8330753165202904 -1.5577057658245288 -0.08168378835745019
H 3.5736093488652867 -1.269217746423496 1.5524407448779485
H 3.5962150182525354 0.544101511795713 1.2490493154888684
