53

C 6.787705691337133 -0.5026715269269064 -0.9453435122516326
C 6.315725517343709 -0.006593471427753254 0.3765423390621299
C 5.380115789869883 0.9335713379652361 0.4866935044060127
C 4.738764639161564 1.55624408884198 -0.7047938236717258
C 3.257392918474484 1.3052489457584537 -0.641245824144969
C 3.0069642226687665 -0.12839154945152612 -0.6404226180728715
C 2.0879878454023864 -0.5481954008814693 -1.4934711957635045
C 1.1078928222920068 -0.86169711480293 -2.3019415034215642
C -0.21363438603731374 -0.7998740651045123 -1.726681449263039
C -0.4712287853802742 -0.8788113631083682 -0.44682862395741946
C -1.720537516726322 -0.8284026691940102 0.19952253554972638
C -2.4284024603334764 -1.9092985368500823 0.38953054090423667
C -3.0582116363328495 -3.011343401078533 0.3204019414144427
C -3.9011619120897194 -3.396212545581588 -0.7730824288609661
C -2.9117561021820073 -3.9293490426285924 1.4062076059406408
C -2.46067231015106 -5.327912643228585 0.9661084477966069
C -2.284766887704053 0.3654786846755295 0.6755318447875452
C -3.233532112065041 1.1241020102454526 -0.06984790870929064
C -3.7344949231354243 1.0392163756855028 -1.4194689796748183
C -3.789432768377367 2.1228923019433408 0.5871036693485807
C -4.313498512631383 3.110822643618327 1.298723238086081
C -3.59130138036918 4.347516406887245 1.2069458444605177
C -5.50425422110154 2.7397893999450185 2.0207272548076824
C 4.972412955825592 3.025826367950839 -0.7291664333157908
C 5.679164866346449 3.627848332227225 0.21663868803536926
H 5.946769948688668 -0.8777994020058578 -1.5633105607211908
H 7.502890325050892 -1.3112805101140228 -0.8051234055901606
H 6.739602392028855 -0.41615592218031666 1.2824250248782991
H 5.049536719845289 1.281655267631004 1.4494863395312747
H 5.153816633675859 1.1090602595123809 -1.6386585238757008
H 2.8360784117398556 1.7781312385254113 0.2749752245415903
H 3.431509853688255 -0.9071233062527513 -0.07281536633040055
H 1.410814138663659 -1.1189641261077117 -3.273827838970293
H -1.0458665765574804 -0.6803631390943523 -2.4042209722853873
H 0.41538716432939804 -1.0009357509298675 0.20311897927940725
H -4.471342632120775 -2.495443624313553 -1.1254416259295033
H -3.2905775063549787 -3.674120304741049 -1.6869335522805875
H -4.586373764292837 -4.237556913700306 -0.5492969777880514
H -2.15369164568005 -3.6334861847685156 2.1911389675366895
H -3.2654270880620615 -5.8144779799156465 0.3801917211683619
H -2.277256481442017 -5.865825463337194 1.905105219032464
H -1.5018123684002063 -5.269059850025161 0.41972081531491373
H -2.6403216224432176 0.2150479394140949 1.7374043488400512
H -4.843104823589063 0.9852720213063209 -1.4061265643923866
H -3.488831132391147 1.9681709490622936 -2.007070990180561
H -3.3704305243695267 0.19534642977803626 -2.0273720775786237
H -3.1631735386141986 4.708750695120484 2.139127622098924
H -3.0124304196595393 4.4925212321345045 0.30837938510015583
H -6.3385300483760085 3.457071080936014 1.9600667009044417
H -5.250663385688917 2.6355788668957243 3.104380833362351
H 4.549617596415967 3.598219450713161 -1.5425891620158525
H 5.857645858961808 4.682276282297043 0.21613016163493315
H 6.088923160847376 3.0256871986796146 1.017501207653285
