18

C -3.1772226044856495 0.10725779434843215 -0.4451774993732554
C -1.8641339636170782 -0.6454025399284568 -0.3696017700190363
C -0.7474695671668417 0.3533960081096385 -0.1618056631106772
C 0.5979786110819361 -0.3061291888791651 -0.07465439399705853
C 1.6309078047608043 0.7883550037032164 0.1325096678006627
C 3.0309454840927468 0.21077406827793777 0.23276015708320574
H -3.974376448939308 -0.6142972360253453 -0.17357684509057625
H -3.124772540991026 0.9263091169835982 0.3179951101591572
H -1.941193034902906 -1.31828981112193 0.5096407349416302
H -1.7185785037587857 -1.2708425370949215 -1.2557240762791937
H -0.7325464720488313 1.0775132598903476 -1.00162211882899
H -0.9602258396119572 0.9186648377155991 0.768189071422379
H 0.6567693271767792 -1.0833300243309933 0.6972809502808378
H 0.787454972098818 -0.7998348923328307 -1.0648413666441612
H 1.3867823998781827 1.3083606015874238 1.080207154656005
H 3.432459952674559 0.10022660238392186 -0.806273519586364
H 3.063453031823386 -0.7336759482272902 0.793895823049213
H 3.653767391935304 0.9809448849407876 0.7384623243851234
