44

C -4.300369547635155 4.852655108425023 -0.1306714751258502
C -4.3486365152094875 3.3788752980593193 -0.2638754969580427
C -3.329571090568314 2.603873411973195 0.04143518549449154
C -3.3686188724474517 1.1463452761349509 -0.08717611772650337
C -4.490288153116791 0.5015091106194983 -0.5409815326644077
C -4.176892601380532 -0.9435880857243971 -0.5419533330472316
C -4.829473869194785 -2.1134627536560693 -0.8684353382148374
C -4.178757433107614 -3.3445618365267173 -0.731336600951602
C -2.8591171027281623 -3.4087210992721 -0.2621158240838129
C -2.195653380072331 -2.250765400396113 0.06734009829033046
C -2.897507467434104 -1.0916774805861131 -0.09379665252960487
C -2.3690751791837017 0.22240889227580707 0.19939942106193828
C -1.065250779625317 0.27414879349958776 0.6720486059241638
C -0.2952712512977238 -0.8355627102004419 0.8615508923534121
C 1.0579903435709581 -1.0648807135028087 1.329877860268122
C 1.9591677957943705 -0.037830666564534904 1.7344917416662688
C 3.164628411794087 -0.08762198382697355 1.221223399894151
C 4.322257232249925 -0.25321351303573963 0.6450660111805008
C 5.263504281499219 -1.082162772778198 1.3843345463434873
C 4.474156883380435 0.3991201183371376 -0.6080241757595853
C 5.310461614382653 1.390116907836772 -0.7825315295564763
C 6.384125125680871 2.1124388044726157 -0.9264355238008085
C 7.419758255292804 2.874435982671654 -1.1299860336920833
C 1.2640761717700462 -2.3794411356091953 1.300623056882884
C 0.0797133294687389 -3.088680020364385 0.819228612499465
C -0.8240205948107482 -2.170205687493306 0.5666237002476645
H -3.5024480862058027 5.184472963623514 0.5717870567344424
H -5.249310397176311 5.290294791314324 0.21478952624830425
H -5.25644814892696 2.9288267690180225 -0.6255054966466391
H -2.427563582022413 3.1081493799411386 0.40524461897958375
H -5.419528208272761 0.9301776583245844 -0.8412381444516951
H -5.856117063338514 -2.0498467232139017 -1.2324020714519643
H -4.695564977168212 -4.267459665107574 -0.9896073441494571
H -2.3312049336493836 -4.336819774368085 -0.14533320949556142
H -0.5349478885120628 1.2154019125842668 0.9366126333963685
H 1.8365397006793853 0.775773723703644 2.38573537255522
H 4.854933645454759 -2.057366923037158 1.7097668059833109
H 6.170428978878121 -1.2769665204155096 0.7923938724146904
H 5.529197271517898 -0.5269629855015706 2.3314458331154575
H 3.895878280179009 0.0958287793457501 -1.4750549577283874
H 8.321835156717032 2.436148065196851 -1.5141749780032216
H 7.393333233345777 3.934348786491675 -0.9221556844850143
H 2.1876452192074916 -2.8412600504954053 1.5962474616906894
H -0.08799380777977434 -4.1462920321731405 0.6758344555200825
