19

C -4.158450978562163 -0.5045657785556639 -0.7545318214532978
C -2.850844824083702 -0.3210232455222177 -0.0274607020521683
C -2.12315857712834 0.7135922591081617 -0.38459066638919437
C -0.8090322836926439 1.0566982016703794 0.21648369649969387
C 0.24110038427504007 0.2533724779732489 -0.5192426827419931
C 1.6114853290704585 0.5200861273520601 0.004539762381002702
C 2.50821665164439 -0.45005376457257107 -0.1347109936008905
C 3.8823516413037837 -0.20445858058236072 0.381296922453178
H -4.644743559506925 0.4891869868509203 -0.763519231863254
H -4.7788909484586215 -1.278873656372147 -0.263111713203367
H -2.545664852835841 -1.0172422311001459 0.7459480987020267
H -0.6034406216602027 2.151279139985155 0.16300993036536696
H -0.7687307793965762 0.8052499116604277 1.303723957763046
H -0.027214580286706896 -0.8220617792699334 -0.36136588556012134
H 0.14672449655484418 0.47196865973312657 -1.5897237866614256
H 2.29711916392569 -1.4070600945321114 -0.6010756939563331
H 3.774426830297382 0.20457922987565882 1.4104926850905752
H 4.447319824932913 -1.1634168784443606 0.49252333306634816
H 4.401427683607277 0.5027430147423483 -0.29857702124928565
