31

C -7.1870819540779705 2.0141283673047905 -0.3265568104096883
C -5.758863529584362 1.7090865030363598 -0.00016489368602246813
C -5.030734124959711 1.0568348722981615 -0.9041902806507592
C -3.623695998518699 0.7481053514875622 -0.6003375587488238
C -3.3343394588646147 -0.7102972221761682 -0.6111843922770883
C -2.113918659739819 -1.1412512849197127 -0.8106796174132755
C -0.8428997595614945 -1.4047765448755252 -0.8814943865401909
C 0.4327082257186649 -1.64896384033681 -1.0079053825788042
C 1.3832569963551753 -0.7280271018551034 -0.3236592988978207
C 1.5576339100746188 -1.2165800224790047 1.0658465207235472
C 2.8228198169946266 -1.4735092282235378 1.2337032155680596
C 3.546467057867257 -1.1802120872439825 0.002198239226834945
C 4.99064555599392 -1.3314847089306656 -0.23436073012677075
C 5.711867062717942 -0.24433695873070946 -0.3093568450592777
C 6.469352490735908 0.7803768768685703 -0.08941049111630778
C 7.063471388563596 1.9489907775290887 0.0022615435518617655
C 2.7197126000105434 -0.7397851259877313 -0.929274418314335
H -7.724159538234451 2.2201921435943146 0.602945226122945
H -7.669152964250922 1.091933187546677 -0.7626697437580874
H -5.352757934744763 2.014972415910641 0.9387009850646646
H -5.437325484534536 0.7503914707907471 -1.8445899955271594
H -3.2865735558615956 1.2232989393716518 0.3437484816698955
H -2.999008729007364 1.2158740523815121 -1.409703444858212
H -4.116420713718603 -1.4241911386141934 -0.45673261915522645
H 0.7637110198121131 -2.4928328591541735 -1.5916011380992274
H 0.7473868702613713 -1.3203246802574382 1.7673234574669123
H 3.301738231249772 -1.8469975860648176 2.130160830503677
H 5.437819969773561 -2.3126763132166284 -0.34227318684962393
H 6.755127701268081 2.6358840660135887 0.7963066634313299
H 7.832506402023878 2.245608638649623 -0.6703688748275014
H 2.9407071062386048 -0.43943095971707896 -1.9409583985991952
