14

C -3.7782234952040485 0.41832343953837914 0.08108074699785021
C -2.6756036836608676 -0.4237504738967302 -0.39480341003126246
C -1.4877671409334587 0.08248930767090708 -0.6519859592458979
C -0.24634613561449745 0.44443386643179106 -0.5436170657649947
C 1.0242320173840915 0.5845619238337701 -0.3648390545511225
C 2.313491434269824 0.5669635446200179 -0.1816618348387833
C 3.0308698008485906 -0.5230936472715146 0.5252479848624945
H -3.4874251652099186 1.460716720566574 0.2329146454589778
H -4.208399534825869 -0.02434672372979954 1.0094856940099177
H -2.882382543659012 -1.4922779033415712 -0.5272352985695973
H 2.877837496620788 1.4015220608963879 -0.5731678107422511
H 3.3935009858574183 -0.1767707284213158 1.4928431901152708
H 2.292749369918452 -1.352153123533895 0.718372622420853
H 3.83346659420852 -0.9666182633629858 -0.12115938706060392
