20

C -3.021388662058834 0.6860241633551168 0.3162506422964137
C -1.806546365399241 -0.14982862080233486 0.05858140144419178
C -1.5676347346501054 -1.3449562717097958 0.6512549060896419
C -0.23927731889637716 -1.8891775907020076 0.1432067462956153
C 0.4036769480414263 -0.6124130442487543 -0.15597635001239366
C 1.409841445257688 0.18467858146345936 -0.1215198382851315
C 2.7760350326311314 -0.05840036554546562 0.4759820067171813
C 1.035762945606425 1.4797983426773675 -0.7536472444458546
C -0.24161089913045578 1.4093333560480308 -1.1735742986972446
C -0.7012945712273174 0.11048128286341002 -0.8455958209768469
H -3.1554405352769472 1.3073865647254093 -0.6021870862154818
H -2.820306363278287 1.4104391502671334 1.1365030783804178
H -2.179579092929653 -1.8424937677628266 1.351785423662471
H -0.47555175685858064 -2.473569608574474 -0.7512689308745707
H 0.2502263334001094 -2.459943616375309 0.9536139264257015
H 3.496499913531318 0.6478404723947251 0.040883594621038244
H 2.760324628103679 0.12244531679335303 1.567582087350715
H 3.1218898861261524 -1.0838481801570348 0.21520091358803647
H 1.6886857144139558 2.3274213996724713 -0.8530364505544906
H -0.7343125474079424 2.2287824356181667 -1.6540387068060713
