16

C -3.2810451759751658 -0.2078891350096075 0.033361609417924515
C -1.8098756165777963 -0.02095698933019902 0.07335439795561566
C -1.2348719451265848 0.9721887563670707 0.6887717427044525
C 0.08385846604945153 0.9771228085501862 0.6742525244974589
C 0.5096928251794444 -0.16449685837170183 -0.12250174943931985
C 1.7410368388263882 -0.5188456170538583 -0.42425881336448945
C 2.950889789434674 0.1782570860401383 -0.010546542582030255
C -0.7431150103651534 -0.8589856468242626 -0.5322729661906035
H -3.696398867878674 0.703438827924448 -0.4881130378487671
H -3.584483378623557 -1.1311872905613862 -0.4678101533760893
H 0.7519828273994351 1.6899657084590138 1.159069694044433
H 3.82662572796229 -0.27161244750283287 -0.5214822469797114
H 2.887767124526135 1.2666716653344352 -0.28107566277069085
H 3.156355642226487 0.14719716470394967 1.0689091502903583
H -0.7904547949049072 -0.8604339562463785 -1.6475222344929206
H -0.7679644521528333 -1.9004340764788537 -0.14292943840379202
