38

C 4.931600380205459 1.001974548310459 1.3989442371583822
C 4.077602127929175 0.48889997521183465 0.2988032691291831
C 3.170409090230044 1.2316289850050817 -0.2826799008868653
C 2.3036931526076017 0.8459337813705677 -1.337639571035114
C 1.2564554203741227 0.12151199337241943 -0.9655821514721599
C 0.28239133880783024 -0.5969829774737994 -0.45851454579527
C 0.634402569280795 -1.9843261870304578 -0.4539751419220693
C -0.2088661570650078 -2.9631437090140635 -0.07075881038255877
C -1.5877966127675613 -2.8683515614085446 0.4004319634120577
C -2.227294523367414 -3.990493001535878 0.6733986571800048
C -2.3250743832957688 -1.6147063783977613 0.6035297371608206
C -3.198620253609587 -1.5972775304409128 1.6096636181985366
C -2.1858829535542146 -0.3668341259839739 -0.19227787109325975
C -0.8222071784671141 0.2577831891325788 -0.0705881909004397
C -0.8589082957417602 1.5498824159160083 -0.8076691929215507
C -1.004345813815977 1.6034205509808415 -2.284070353009034
C -0.7583199151254606 2.6683378432835325 -0.11609654727100746
C -0.6111304604611915 2.6732264588691983 1.3610577216532629
H 5.984501898158478 0.748191189885941 1.1510355841711395
H 4.811544733023478 2.088051410225813 1.5432108735571843
H 4.2139174344058326 -0.5224800835388893 -0.024082946714146066
H 3.0689146221837227 2.2655146694210524 0.08579825098462356
H 2.295003153284744 1.0022368359115217 -2.3691614284916636
H 1.6005509654673147 -2.3364219635103383 -0.7580698658453173
H 0.18766342788085943 -3.981128394986355 -0.11541567629496509
H -1.6841173999300119 -4.906737626530028 0.5300369163318271
H -3.2383955106843936 -4.0337186601104715 1.0143134889256076
H -3.7483088886946496 -0.702207220065834 1.7800246594494118
H -3.3065737294418827 -2.4760603495089017 2.2077565757386104
H -2.9078823337797277 0.36584195319999696 0.22313981146938328
H -2.4768107411710947 -0.5882626505212953 -1.227714750700564
H -0.3490618358233955 0.8587288950861716 -2.7880568231500042
H -0.6956436098477323 2.599470934710213 -2.663956764422092
H -2.084596524917535 1.4399700088088447 -2.51904273826847
H -0.7829456176039835 3.612958690100267 -0.6328473125743169
H -1.0779777935283088 3.607667007614504 1.7680415544912578
H -1.1371804585958551 1.8082076941076322 1.8095442140865525
H 0.4592906774497966 2.689693389533212 1.6794694500532372
