20

C -4.463877192341926 -0.11296392797714228 -0.49388742045282613
C -3.0968545730964223 -0.11065759818939923 -0.07271537838827291
C -2.2992354979995344 -1.1381699505103373 -0.3152093744011546
C -0.8716885397201215 -1.1801428651364774 0.10355082151683195
C -0.44115333360898806 0.026177823238824054 0.8083016896964118
C 0.6395091853107844 0.6817073619308308 0.5002669967201618
C 1.8429414534604813 1.1349034017792583 0.2984203952668732
C 3.047155949825967 1.632203683887125 0.2911635096683802
C 4.190148781229603 0.9070953389807813 0.8042473032320883
C 4.9800109474306335 0.193941599488273 0.01799251451384722
H -4.96947261679427 -1.0554703500086686 -0.6427593448562168
H -5.01895949682148 0.7938280597280087 -0.5442650764418356
H -2.6737997045587187 0.7320890603576169 0.45720405918177154
H -2.669284334247042 -2.014944376099293 -0.8449916811708514
H -0.272521931825878 -1.2543481974824229 -0.840317321057097
H -0.6539433920028468 -2.0969376713177312 0.7045774515433073
H -1.0334273178167888 0.4077618929727096 1.6257390747770912
H 3.189631509024366 2.628777036756261 -0.11700276408220234
H 5.836601485276093 -0.34625799090530507 0.41980654990952576
H 4.738218619275614 0.17140766850708822 -1.03692768679636
