7

C -1.3630267962696958 0.028942383998816476 -0.23126904088468872
C 0.07537181398622624 0.2919507271629836 -0.19117276523969248
C 1.0647631665859074 1.115353935730587 -0.36696642796419104
C 1.417118054555682 -0.16574801154671237 0.06871307618853223
H -1.5775927934028222 -1.0530019460617142 -0.22717307493924407
H -1.8352610421132225 0.5590759845119235 0.6170970703074616
H 2.218627596657937 -0.7765730737958833 0.3307711625318246
