32

C -4.969497073439634 0.4270098958852091 -1.476721929732673
C -4.0956502477488215 1.509374197466161 -0.8270709506648247
C -3.1334131278751456 0.985768966088561 0.10845440115319771
C -1.9409178653047567 0.47388468287716673 5.8977042786313976e-05
C -1.313359451845501 0.06921049949286673 1.2215132888651377
C -0.05908877325119057 -0.47632485753199905 1.2382632475844144
C 0.6532506115026534 -0.658917533537253 0.07552064542744133
C 1.9921686146668218 -1.2354188587123633 0.07046483879474913
C 2.6500815901507893 -1.63129980163905 1.1185536551951625
C 4.015485667612301 -2.2119995757787474 1.0481722442391934
C 5.06761265905329 -1.24422010890213 1.3142255877290936
C 4.688305959319818 -0.02997973249835861 1.6334264922136041
C 4.21278671380666 1.1641299748358784 1.9450956528723433
C 0.035839856130237525 -0.2669020498737531 -1.076339246432184
C -1.2466244108342746 0.29863307437670994 -1.1686157861112942
C -1.69663734561333 0.602730343870528 -2.3614945900676467
H -5.85015946544853 0.9422906782262507 -1.8993737539857976
H -5.326536979586612 -0.2967760670042957 -0.7347456336858341
H -3.8116627527274387 2.248252525955812 -1.5608470026310808
H -4.903506674059006 2.110830500219022 -0.22065158558243128
H -3.5374987211785442 1.039201951989555 1.1801414521110194
H -1.8480832034562003 0.19984058337092475 2.154469716016136
H 0.3934487942971868 -0.7767519924727591 2.1994465997140864
H 2.4788380784402704 -1.3404750676575021 -0.9041414784453332
H 2.2097772216881504 -1.5462240592399181 2.092383453548419
H 4.142200171474771 -3.082726044220361 1.7079784454557612
H 6.11180900378328 -1.3772232980028043 1.2878418892332137
H 4.066131929323345 1.8010482125126515 1.114802906011131
H 4.04780196179143 1.3072311894650168 2.9783377914429816
H 0.5866209503754078 -0.40539736812281413 -2.00101605026286
H -1.0170316098328793 0.40316617570029734 -3.208460952353296
H -2.6024920812154058 0.9980329628617887 -2.6238028519769956
