27

C 5.09281855396822 1.1570195536985273 0.4199220468169452
C 4.6745523912046885 -0.16230469387555063 -0.04038390198300521
C 3.581134027529178 -0.6411816391448363 0.5103664730715752
C 2.4305736644005793 -0.9952947746927421 1.0484873057188004
C 1.2616189709483367 -0.564449239151179 0.34751389004674715
C 0.5410896499136645 -1.4142373005182118 -0.3474735816871441
C -0.6868622515115848 -0.9345389598106851 -1.0776643079858643
C -0.8510074538373154 0.4956951033237148 -0.8583332251582393
C -1.8167373010336465 1.1690726935604547 -0.31425098220986186
C -3.0480300515950645 0.7200302529708706 0.2540521580085196
C -3.910293359496901 1.632723602489926 0.7676568002606319
C -3.529358067268585 -0.6781525150715892 0.3648807610970001
H 5.698321952785396 1.0365147627263418 1.3420254626080288
H 4.240932160479603 1.814545444987842 0.6758818734553907
H 5.106009938581783 -0.809543923857628 -0.7533755077391417
H 2.537976305898253 -1.5543213770824413 1.9350736099317825
H 1.0096328741890017 0.4988929811329711 0.42671585389380023
H 0.8414512239803361 -2.445927049926888 -0.38428915657252954
H -0.44830266292978277 -1.0502992473310442 -2.1891829095957496
H -1.5028901212054828 -1.5968521876829465 -0.8410810372771688
H 0.017506407498153843 1.099353033778047 -1.2348826459114342
H -1.6812442247685984 2.2864069264691813 -0.2742880722632262
H -4.848708956896124 1.3648821318529893 1.207789836674364
H -3.6222918587722006 2.6736246111424973 0.7229030817287504
H -4.506570626794323 -0.7213422168287908 0.9416126094962024
H -3.762708125758378 -1.1622256104634119 -0.583254081304869
H -2.8186130595093717 -1.2180903626954593 1.028553445358933
