20

C 3.372077325001023 1.1240605895271338 0.15306603054665102
C 3.1069426034826937 -0.16253348427813558 -0.5350593174635089
C 1.919220990459091 -0.5625258742632069 -0.9322155916639406
C 0.6600831478554915 0.18945769589906164 -0.7644332343275246
C -0.39783641092585487 -0.7900318779933131 -0.30918222549389834
C -1.7116752150868648 -0.1590857359434548 -0.10365091150046209
C -1.8854679281838185 1.1318472997959592 -0.31062864530807366
C -2.869512249084529 -0.9717918051434766 0.34289720418821334
H 4.287494997889303 1.0579220908722384 0.7964532499356887
H 2.541779779719456 1.4381362603150827 0.8227879172456356
H 3.9545191309909717 -0.8044640033550191 -0.7159625375165696
H 0.3089844455372768 0.6598905550264527 -1.7003379397167462
H 0.7297354396463532 0.9852999098354649 0.005353204865786432
H -0.5307228226217736 -1.6164181350775355 -1.0481891041722482
H -0.08133214602306266 -1.3026611892815192 0.6365414684656845
H -1.0502000798487086 1.7413524736182413 -0.63727422340503
H -2.8609801854406736 1.5920751456548348 -0.15644114179186291
H -2.7206492894193826 -2.051145981970816 0.20499433052186944
H -3.8164354146019153 -0.6868278755447086 -0.1504604707545987
H -2.956026119345095 -0.8125560576933213 1.4513220206197779
