13

C -1.694522099245357 0.7989747222098422 0.09290487732738933
C -1.517568600331331 -0.6318374872514326 -0.24967896949779939
C -0.3306214641111427 -1.2078150089966262 -0.3414835634764549
C 0.8746886853941623 -0.4270541417107158 -0.1007346499896662
C 2.20792011002971 -0.3370837109231915 -0.023632128084214075
C 1.4978464518331012 0.8966614710347861 0.24873947149623188
H -2.518228745915513 1.2876964373344817 -0.4145382907339784
H -1.5601701617417463 1.027588570175262 1.1478471469624392
H -2.4285692160974492 -1.1947134664261523 -0.42497997918974817
H -0.2801812181375008 -2.2404421757329422 -0.5919296414223241
H 3.136296137388675 -0.8688495783836611 -0.11530359840296021
H 1.3064368483422582 1.24013746490087 1.3005581854472616
H 1.3066732725921437 1.6567369037694688 -0.5277688604361522
