33

C 7.354525934836023 0.3408508072347667 0.5727735826840342
C 6.146621677641355 1.1836751203535265 0.5308542097213605
C 5.024923814429863 0.6027708009357773 0.8488914025439804
C 3.941582404703993 -0.10098960848980784 1.1039371078375217
C 3.3252901649384055 -0.746272478962541 -0.05012480882399793
C 3.214402755514722 0.18783060562803375 -1.190002563515387
C 1.9447273148177928 0.3794436213006891 -1.4722899476689466
C 1.13867647964943 -0.39446376497124663 -0.5628034074907764
C -0.38878530802105593 -0.44601505339787095 -0.5594412888111941
C -0.9549683433578219 0.9024123781771697 -0.3307999912077763
C -2.18250581983084 1.19065849546615 -0.25306488190045595
C -3.3674630985147087 0.43624812443773625 -0.34184229607795047
C -3.55505403798761 -0.848428755746835 -0.5408735265367195
C -4.92020246873519 -1.3882111008748985 -0.5908624513111673
C -5.833652793722255 -0.9359216760944914 0.2353939755033894
C -6.856652433602907 -0.3004605667703568 0.7298843273692923
C -7.7710917783832905 0.4353393028997302 1.2941266069408117
C 1.9173058258269438 -1.0424661175046306 0.25521504627055563
H 7.231073465590238 -0.5608494691419434 -0.061956469588523966
H 7.557154140981116 -0.003982142771253907 1.60059490634685
H 6.053254487893512 2.201809384823763 0.2764335784737861
H 3.6662634715380595 -0.10194930734533363 2.1211596789000557
H 4.074097573231851 0.6201301149073745 -1.6821264964079445
H 1.5850175049505495 1.0124566916210644 -2.2558063260222623
H -0.7063290198425918 -0.8652008479473288 -1.537911286664141
H -0.6433690223104497 -1.181088807101889 0.22046051746215004
H -0.16866960295650066 1.6956603948719968 -0.22569225153549835
H -4.31118984444896 1.0477517639154048 -0.22011400141270807
H -2.747323814507474 -1.518459091347319 -0.6684291137749048
H -5.117142002721366 -2.1529405884746957 -1.3239929089325102
H -7.724884195568341 0.5566631346542125 2.360857888568467
H -8.526835127306027 0.8855886296869231 0.6697028955032814
H 1.6012016952776005 -1.7045740203934971 1.047848293557752
