19

C -1.7985707853434183 0.30537553249196264 1.0227222394001718
C -2.517845682429185 -0.1598594985618526 -0.2015580031930662
C -1.507973969301431 -0.20606717522246887 -1.3587967111224704
C -0.4669780403343062 -1.1180670524155292 -1.0032967952039724
C 0.6941538334490164 -0.5698749759150293 -0.8719458207155918
C 1.9199500239721219 -0.19099889496992078 -0.7698438471182845
C 2.306229176244633 0.2872659676017572 0.4975133955199994
C 3.51842606511761 0.7242173938921317 0.8134726890044184
H -2.42265421503328 0.1091555851107503 1.9356929868728896
H -1.6351721593997504 1.4130632144876534 0.9241665462139333
H -2.957747873564088 -1.1623520537795964 -0.029795899273676645
H -3.3659782297892393 0.5092801415764729 -0.45541577573833303
H -1.2124988627343507 0.8364985660902627 -1.6251007658691778
H -2.13731610155346 -0.5267835627964882 -2.2411275336204772
H -0.6808845025861158 -2.1397396086630276 -0.8685791444290015
H 2.6292488788672834 -0.21835604625823135 -1.562960226469064
H 1.6047394231833634 0.3278036623922736 1.3227352703538175
H 4.259078841890091 0.7011867317410572 0.008441307570869748
H 3.771794179344626 1.0782520731979925 1.7844204014152996
