20

C -0.44990405163497027 -2.305020964460831 0.2785625152025652
C 0.0017582552494075055 -1.0994136619139296 -0.49948455178336953
C -0.929187399494437 0.011420310229254096 -0.19431747427779636
C -2.1418930498485365 0.13298044929929626 -0.6669251245019538
C -2.9348000864003256 1.3307443948137188 -0.24181977160466336
C 1.3726107082961865 -0.6707124194701624 -0.1670767227323284
C 1.58412077630433 0.5411456098447268 0.3180573058992217
C 2.96744000613387 0.9841851088404978 0.6574358496169893
H 0.20005670977861062 -3.1732232687879223 0.1732931534874588
H -0.7262920615947118 -2.0511123092014403 1.3038024805213113
H -0.04358908922263451 -1.27333423188985 -1.5917862642826672
H -2.5990917416134462 -0.5756038074399858 -1.3403162770485493
H -2.4730490284999553 1.8380863914320213 0.6186286921296281
H -2.9084137221275186 2.0459915158142925 -1.0863241785581796
H -3.9529846096781918 0.9801857232982938 0.010475445893560332
H 2.1977480553474105 -1.3398064727409547 -0.3180700389149122
H 0.7955156397920334 1.2646072109247422 0.4941881142379831
H 3.0435746155097227 2.09393331366223 0.689740842162921
H 3.6995511716985474 0.639986547331717 -0.09000481498331835
H 3.296828902004585 0.6249605604143373 1.6519408195360958
