22

C -3.9920869156268597 0.9888363482078721 -0.9960700470298035
C -3.634211446797161 -0.20042131683835893 -0.20611636077718867
C -2.630470689069725 -0.1280082859559871 0.6156352921229774
C -1.4561597036133858 -0.11396869178633001 1.2311927836380365
C -0.27224096150815785 -0.42054673854780616 0.3810686006198361
C 0.4238688600025787 -1.6735641287045995 0.7861794376980765
C -0.31140062911067645 -2.7136026139221197 1.1643135944882474
C -0.2594167257040415 0.00021400856006562893 -1.0315057322644337
C 0.5657152121444315 0.640110626750889 -0.12478080050066229
C 1.5707304608903263 1.6713355785158714 0.10505881115949024
C 2.8307723446818573 1.3674558831870354 -0.025845858194060833
C 4.044416938078188 1.0948652386238464 -0.32260056540483545
C 5.254469497758521 0.6443367809368528 -0.5332997403237388
H -5.078510350709138 0.9365637053830921 -1.2160217731579015
H -3.845243058587335 1.8789754769570435 -0.31761372664031795
H -4.189941953330351 -1.1028645353573419 -0.3141301213271849
H -1.3999435009648116 -2.691021394335716 1.1913286378102441
H 0.16229967086583158 -3.6404756893924692 1.465299264072198
H -0.6231892616134507 -0.1093921386896302 -2.0303491647546585
H 1.2556257036483043 2.677703372519507 0.38197758617285354
H 6.060892919075875 0.8106174709607855 0.18132551937347094
H 5.524023589488986 0.0828510429272607 -1.4253608932721944
