14

C 2.791599269541528 -0.13694710444721936 -0.18959145773623926
C 1.286954935494903 -0.27817263037247764 -0.2740987808302838
C 0.6277911819808244 1.0146413548798536 -0.561051727122123
C -0.5806291544548613 1.2712138600080805 -0.09775451507495134
C -1.2934515527906194 0.2524357166888197 0.7232925472320256
C -2.3616069961250368 -0.33579692064348377 -0.1788542908345056
H 3.152176705377405 -0.009081049041029804 0.8412259927914805
H 3.3276574011738767 -0.9825399298613061 -0.6666436083418454
H 0.9455452073824189 -0.7529238916721727 0.6463271386643864
H 1.0545976213854171 -0.9600815103989558 -1.1164701670766453
H -1.0851728192216765 2.211251654726483 -0.29422247273808794
H -3.1359377060554525 0.4690113413086882 -0.2995838805933255
H -1.8612982506212017 -0.5765536854711518 -1.137951314731441
H -2.8682258430675045 -1.1864572057041338 0.28849095019976717
