29

C -0.07223628837979323 -2.416243471682171 -0.6061846823312027
C 0.2965871908956957 -1.0100209051194102 -0.9077301205410792
C 1.4960869236398269 -0.6399920772611791 -1.6925111671316937
C 2.7005000683570812 -1.405004846668125 -1.3122713048737131
C 3.5683856367093494 -0.8313382735508469 -0.5038685478521974
C 3.3580911077969695 0.5309080981090695 0.013430881026912771
C 4.242328354529973 1.0681033408237675 0.8146085420749689
C -0.4745128639545037 -0.03613623551193271 -0.4597029290974991
C -1.6915804752709886 -0.3615174507967247 0.33424931367037
C -1.9432419815688513 0.5884931946292656 1.4258554501446945
C -3.019056276199278 1.0503381932098748 0.8207361655956609
C -3.9734267853531 2.132409394005076 1.2686806911115123
C -2.9051354674546794 0.15901742666562413 -0.3490444530723821
H 0.27699092512107437 -2.641171181843748 0.4214729513795687
H 0.33957460908962034 -3.1046551761055223 -1.3515860564821223
H 1.3316800763464494 -0.5481781247809654 -2.761656261227501
H 2.9060698645382974 -2.4074157203613162 -1.6615466466154474
H 4.456424733812311 -1.3767677938645857 -0.21466033141059332
H 2.453252320094584 1.0436489995957978 -0.3016863285928624
H 5.115570222782497 0.5208223422099891 1.0938086202413397
H 4.0977137739627025 2.0566142122777724 1.1949121918014929
H -0.2857758332952824 1.0180237908110672 -0.6296098935754653
H -1.7704831464758488 -1.4306848356929331 0.6273793812947426
H -1.408084947525188 0.7878143954393492 2.355268511762095
H -3.382773107255804 3.05866792296244 1.3450216916688877
H -4.7873223180896725 2.207106129596309 0.5158949154613593
H -4.444552504240983 1.8506099603604902 2.252012036183122
H -3.7602768844045777 -0.5611450221969697 -0.43193156533035615
H -2.7207969282077054 0.697693714740597 -1.2993410552825495
