19

C -1.9323086995293233 -1.2874017587029363 1.475947818987449
C -1.637224833102266 -0.3434034919495853 0.41309360527778227
C -0.6685389417065842 -0.6910798035069025 -0.3841837837250712
C 0.3805843173368972 -0.9833827628855916 -1.1172757163202383
C 1.623378281573562 -0.4962799302229628 -0.6254450185810095
C 2.496575118681651 0.02859793162146828 -1.4584429315909921
C 3.8196003662522227 0.5640542834614131 -1.0439821044293722
C -2.2715181723372795 0.906804437903395 0.14087119161488174
C -3.2693493578542907 1.4017413743741418 0.8560181304185724
H -1.0623034981790378 -1.7172168986572725 1.9915821556317017
H -2.637349176545376 -2.1065553373736643 1.1569054180161935
H 0.1256706801302685 -1.5407778837591157 -1.9670827536135422
H 1.8966233976642586 -0.5341122418502487 0.4179512778183535
H 3.6732050458332757 1.4428992427855503 -0.39774735353303686
H 4.3584468235797065 0.8179449123944706 -1.98783821306491
H 4.415286194220726 -0.21012410508483892 -0.5341295668685657
H -1.938334311416727 1.5132248724154278 -0.6978834528522309
H -3.6858176908363616 0.884545376074132 1.7167696973126956
H -3.686625543765375 2.350521782963188 0.578800800841605
