23

C 4.093799415993962 0.028942964987024884 0.15394784463089292
C 2.6028741697362956 -0.05027426919177835 0.49222811230372865
C 1.8508357829153663 -0.60834773339551 -0.6924194814088035
C 0.41645760208473204 -0.6922253344227675 -0.3869967726652832
C -0.41872897583231955 0.3370867347040692 -0.4503535031442135
C -1.83092074566475 0.12243963292075868 -0.12012363479555971
C -2.1616275482610647 -1.2707746030684863 0.1928131535478351
C -2.148154865192065 -2.2155742413356188 -0.7316880063174342
C -2.4081200983803352 1.1130009047213096 0.7957693220265458
C -2.7612866828895384 2.3262766666140675 0.4085503007412197
H 4.618872716278603 0.5390938253933929 0.9827983733625582
H 4.23136745120385 0.5883085110693946 -0.7962272311315178
H 2.515968662408152 -0.7043941038469613 1.387864365354727
H 2.2403266954015035 0.9701869578303081 0.6886036176480045
H 1.9996793798720685 0.10058281509672821 -1.5332963243235855
H 2.2368894509495076 -1.6160947640697563 -0.9641727887842271
H -0.03527936970761886 1.3037520848337711 -0.7432751889888819
H -2.42388709104586 -1.526188273256035 1.2142873000164276
H -1.8840233104754738 -1.9459908931589158 -1.7491892581680477
H -2.3905747456209574 -3.2581060430069555 -0.5217098164884021
H -2.545380138643058 0.8200754112160775 1.8383387921013008
H -2.618079790261387 2.595980375234425 -0.6231444246868394
H -3.1810079648695613 3.042243374131499 1.0812418655083713
