18

C 1.4047465831852501 0.32965398053115424 -1.5445685181676572
C 1.5303239633216783 0.17846016461104042 -0.07676051291470877
C 2.7279659599316393 0.07634903763553572 0.4531877849855947
C 0.38321370447028774 0.13750273209450486 0.8103428697573847
C -0.8772296152413903 -0.26673412635582283 0.3720931258263119
C -1.3094029821081108 -1.6504388612145744 0.5462824371641752
C -1.643936483666678 0.621859677771353 -0.1862536220353521
C -2.625097237345778 1.4504597849375562 -0.42353239321208475
H 1.4996636361557483 1.3826105967650044 -1.87965127773721
H 2.2164815593251763 -0.2513954964233509 -2.0437240083000194
H 2.840452409752562 -0.03399124257843294 1.5157596911406428
H 3.5915957276436536 0.10466361347390274 -0.18952001163770402
H 0.5588498552485192 0.4361687704249815 1.840713499458735
H -1.956966518271254 -2.02658404375047 -0.2698447125193168
H -0.4491877157539178 -2.340199763229779 0.725274803126921
H -1.8954960803045942 -1.688768128265631 1.5125028604240502
H -3.251626625083643 1.9071106524671018 0.2844099588232276
H -2.744350141258798 1.633272651105758 -1.44671197418312
