18

C 1.1892228165721719 0.6828049017923774 1.8272495384866476
C -0.08663365659318739 0.16864639801249645 1.2280019606718031
C 0.03188990591888417 -1.0521585826452242 0.3998896906737549
C -1.0567338159970396 -2.0989682981816826 0.4037578071677199
C -0.38875354772260623 0.29418932879048665 -0.21746545963610567
C 0.5356309945242771 0.9404473982057855 -1.1514552167693886
C 0.17977840611640306 2.0017366682994875 -1.8535091884128394
H 1.6079412166726907 1.552143545981433 1.3124865692487604
H 1.9051641562151895 -0.16096975133213562 1.9124901567587973
H -0.9423757649977845 0.1740752400775139 1.9463648500392292
H 1.051005166481817 -1.4194556137647465 0.1650424434218908
H -0.7343092120248658 -3.0654697781258013 0.7772960721175539
H -1.8785944724363288 -1.746397032063334 1.0816555706145183
H -1.489556393054577 -2.1249389627064694 -0.6177648233157298
H -1.4850560499389909 0.40005521370350505 -0.4687951962000685
H 1.5324546683282088 0.5547870787026323 -1.2814600535339418
H 0.8447524659468275 2.497484968040948 -2.5501210257459292
H -0.8158268873627925 2.40198728121934 -1.736692115685563
