19

C 0.8086883839759192 1.7541922241289507 1.7472422604585245
C 0.4283411016616146 0.7615555923121571 0.754926859170459
C 0.9447841424304431 -0.412689661903985 0.8914031369908866
C 1.5215439208119572 -1.5979378280431125 0.9874777347547326
C -0.4698759225680275 0.9544673498301223 -0.37049238642469007
C -1.5519099271667398 -0.03166201484903455 -0.47329697396614356
C -2.0944295012112213 -0.6251801823439173 0.5709812289759747
C 0.36053425832343133 0.9071495096868896 -1.6298136957645752
C 0.3966713833054102 -0.22550633354171248 -2.2946719388764625
H 0.7233233446414508 1.392941575400787 2.779119266346679
H 0.3210394951722251 2.7399180763262505 1.5939765266694153
H 0.9623242161281881 -2.2678431821376037 1.577032931892754
H 2.4356081391797773 -1.6985598811105393 0.47254954292682017
H -1.9245511764727123 -0.285705537452433 -1.4543347891519685
H -2.8880020472216583 -1.3450796636278075 0.45865919609678957
H -1.7275406070351913 -0.3763960353026152 1.5532191830369657
H 0.9082626706234562 1.7595430185442515 -1.9837236472273934
H 0.9811440088408149 -0.28867238556269276 -3.197140621598491
H -0.13595588341648226 -1.1145346403583267 -1.9831138143110003
