33

C -6.021180000548663 0.40543412094501485 1.249787218626283
C -4.863138416075037 -0.014663768608220678 2.060814018426657
C -3.8933070151489124 -0.7271064865158627 1.5200112929095673
C -3.9876659785043334 -1.0812463717757048 0.14003326859432472
C -3.1535156705103917 -0.4676765718690753 -0.6671455553102585
C -2.2432876470601397 0.14319681348110597 -1.3796486306530371
C -0.9418412156152377 -0.5665887637441853 -1.4662246035546354
C -0.27424842130748056 -0.6740350583958256 -0.18660905746158504
C 0.9847291675571392 -0.37006210175215687 0.02174943950244688
C 1.8123485134703672 0.11006281245115468 -1.0611820347143304
C 3.0809671231466416 0.42364941960339525 -0.8829037433291379
C 3.7691619040264985 0.3227681009628265 0.3932444183809749
C 5.042444937877733 0.6648422310969143 0.45319699620358894
C 5.761973400885733 0.5711383911776328 1.7362226097625177
C 1.1628558418477986 0.22682142243134618 -2.359305644796082
C -0.10099349989691252 -0.08331453161492068 -2.546767984329187
H -5.871103987353185 0.13402135139616816 0.1779858495032662
H -6.025462559226064 1.5314644450688446 1.2609125434826467
H -4.849482315274726 0.2863359015216092 3.1054407717274843
H -3.073272166307956 -1.0024052886470771 2.1693495226721775
H -4.618313294900588 -1.7610249765757426 -0.3563044986866984
H -2.5327249914670893 1.0548630161869286 -1.8024790198017728
H -1.2265420449772673 -1.635095474216193 -1.77066142001711
H -0.8693145201401242 -1.0395304483079317 0.6802738042022182
H 1.3901196955254767 -0.4921192979042719 1.0460330697108045
H 3.673190195301589 0.7863490184856317 -1.7411190116803101
H 3.299131984231656 -0.016578283614779504 1.2984035790083577
H 5.566608641256672 1.016136983374398 -0.4381521854336632
H 6.507166990581446 1.391010746408866 1.7637216128479596
H 6.258307704320058 -0.4306416256849337 1.7597376662269482
H 5.045725296323949 0.6891214283069509 2.5789058813105616
H 1.7493766404824143 0.5870738741620022 -3.2137567918535686
H -0.5587142925213812 0.01779897216592415 -3.543563381477337
