19

C -0.41181751658225685 1.7418336002447676 1.1228432626983977
C -0.24353919214125563 0.6965342992295424 0.012695146968868603
C -0.9399519922161541 -0.5243649019049951 0.49701207282231546
C -2.237221803063179 -0.7346685147780695 0.4054745546219293
C 0.09555655761466325 -1.389698412976691 1.0675328433285136
C 1.300021684208399 -0.9476866208875716 0.7410239104534113
C 1.1889865291158357 0.26904714436257593 -0.08845104163532373
C 1.7036774099249659 0.12722294920586966 -1.4382981426510388
C 1.049815966980352 0.2072424205475184 -2.5671820784708217
H 0.514082977220503 1.7529968155210405 1.734180213068466
H -1.3068610184884282 1.543508639840495 1.7249626038567747
H -0.6754773930208111 1.08555922827943 -0.9112948152308652
H -2.6906633468631864 -1.6409465587258043 0.7744273237126407
H -2.8812971663760827 0.0008358621874329055 -0.044320596434436886
H -0.12848421742815047 -2.258568107288813 1.6659747621462588
H 2.2113780556628635 -1.4465422546952378 1.0637117927431563
H 1.804380567179378 1.0577112167826235 0.43382635262255465
H 1.6410898103095122 0.06643389992671596 -3.4897316280402255
H 0.00632408795130069 0.3935492951107096 -2.704386536611382
