17

C -3.1958096255349795 0.4161584760166891 -1.2652524101401126
C -2.654183652330347 -0.43069751057881844 -0.17395786575892958
C -1.3607745731183507 -0.5361191652091386 0.06752745954597048
C -0.4240808349013096 0.20530009160168147 -0.7663367470938318
C 0.8734497470507027 0.1495634986670634 -0.5857907982062154
C 1.436043969501403 -0.6643816211469258 0.4667296038716669
C 2.4331837185040572 -0.13996005537483006 1.126988848030547
C 3.4351770858529402 0.4498599315645735 1.738468014443398
H -2.770126998474826 1.4346939244026764 -1.11401724315371
H -2.8115765158706876 0.04626503711354521 -2.2406902491473524
H -3.3604490218966636 -0.9808256168096626 0.4437869242756817
H -0.9990746952006451 -1.1525263913437402 0.8590588906956103
H -0.8150566484006102 0.8242553373728485 -1.5635199935968427
H 1.520854554627033 0.7097338823668311 -1.2209987732519834
H 1.1514027521828227 -1.6316847053114447 0.7792194800832943
H 4.38805478509118 0.26348552910020745 1.316027034254762
H 3.152965952904822 1.0368793575627964 2.5766484716506675
