27

C 4.633439758787091 -1.2688735097217265 1.7232179638833347
C 4.3449592015502105 0.11914758108929596 1.4021000734693025
C 3.638784455950407 0.3263917915946091 0.31610959918654463
C 2.87912385161085 0.4215126935362821 -0.7461767468641016
C 1.4544935412073772 0.3659415063090706 -0.4852919269826137
C 0.7046887989105177 -0.41513802925724613 -1.2182409098389513
C -0.7523635071263866 -0.5784057602411505 -1.078499084751643
C -1.390854094091078 0.2769816627051221 -0.03485812605259768
C -1.384450595894549 1.67812457278851 -0.4447488708146208
C -2.6283855680616295 2.1286698284281065 -0.43288750216094835
C -3.5082529795993382 1.0507427570272103 -0.01780014650342299
C -2.7999052152120627 -0.037093888718874354 0.21768093859439935
C -3.355430817294617 -1.3503079956835564 0.6633240176629436
H 3.824159756658903 -1.832776106288514 2.1933713283070513
H 4.888083162372572 -1.8035966984712788 0.7760563531208812
H 4.607329153454096 1.0093790135773915 1.8987723107623835
H 3.3910565924554397 0.5248511992000965 -1.65753079094545
H 1.059533610686675 0.9636440982769917 0.3237229215231568
H 1.177464392871997 -1.0093453368403102 -2.010918920432944
H -1.27740222145312 -0.3931175371002073 -2.0681801223526586
H -0.9797638865976568 -1.676889425545867 -0.8933236601464387
H -0.5012632994525988 2.2685267054270297 -0.7256648500049627
H -2.941359130721105 3.1459183382128466 -0.6931285811082853
H -4.6023217542449695 1.098693173573483 0.0939349656275191
H -3.496737479858248 -1.2693857225126994 1.7692656673097538
H -4.329726806098203 -1.5685434368324478 0.18886990672632364
H -2.6548989208093916 -2.175051474533169 0.48932152462483675
