15

C 1.9764598076596105 1.3099993351811368 0.3031309827074662
C 1.3057835803428715 -0.010961923721813604 0.2988779615801817
C 0.1323453251889464 -0.6956892812467622 0.21545304862202413
C -1.3291813278852518 -0.5756720206791607 0.0661032865127275
C -1.810777396973384 0.8312778688308389 -0.04697861556416258
C 1.3456868131907422 -1.4808353916910426 0.371494851063713
H 1.3753578607240053 2.0482439435258364 -0.26697551920492435
H 2.9797252738754523 1.1848214360237992 -0.10360515103208164
H -1.792070900546997 -1.0187391082641801 0.9708973063228841
H -1.7065031183359678 -1.1358566687719744 -0.8255510252639899
H -1.7507342713365348 1.2885318819581597 0.9729616708591946
H -2.8744503133763795 0.8018936924051413 -0.40821092352538524
H -1.2599856614350253 1.425177745238853 -0.794482124837221
H 1.7690229762831935 -2.065658270091091 -0.48887973757390846
H 1.639321352624674 -1.9065332386977496 1.3690049355604512
