20

C -1.9504932089218108 1.494436600686362 0.7474296686589038
C -0.6698340116399831 1.2605933843110182 0.049254668837500216
C 0.18072759785384424 2.230538338604127 0.021929927700342963
C 1.446212580745013 2.0796360942753505 0.1029496682202294
C 2.0671707830448582 1.1206088641533776 -0.49969747362881467
C 2.0890174791328797 -0.30592886125237423 -0.11734193735753636
C 0.672601471766569 -0.7785340937441433 -0.0357974149692782
C 0.2851147224896008 -1.909419833194293 0.513481566861072
C -1.1596859798406067 -2.028683054324618 0.40516978692865924
C -1.646676723475196 -0.9719207258410105 -0.20864086947882476
C -0.5219252527878991 -0.08410701866958468 -0.5423303361579838
H -1.9642797374245093 2.5007093908507376 1.2354387816378039
H -2.7899789080189885 1.5156494397473321 0.00773320589381295
H 2.626302482172201 1.4082085666155089 -1.3758941253416743
H 2.6556334092937828 -0.9226907922078587 -0.839103998882432
H 2.5604640412487134 -0.36220210456103397 0.8896070434188801
H 0.9783036649768069 -2.60485931298008 0.9615500269167919
H -1.7762907072748726 -2.8554598969909173 0.7672679961410737
H -2.7008083656909023 -0.7935291235246738 -0.42758348004179714
H -0.38157533764918417 0.006954138047077723 -1.6554227053567276
