18

C 1.8197776679585744 0.21225263707703176 0.7509221726492277
C 1.422070699460652 0.044435578389742214 -0.6861226456683099
C -0.023850124172794893 -0.3813840146597782 -0.8238887814511099
C -0.177804185640054 -1.674138318704167 -0.11993398089505031
C -1.039943123489946 -1.541044143539218 0.8677619059572985
C -1.5015085333468186 -0.1529090932994142 0.8688250866321684
C -0.9348661428563994 0.5495712530050144 -0.09690938036061167
C -1.127809923923006 1.981394518465728 -0.4377234496836709
H 2.848721270176095 -0.08635171786602149 0.9526978446219201
H 1.6197511844531522 1.2134797704268103 1.1507445451621783
H 2.0381837765202113 -0.7745727562154572 -1.1165656949074443
H 1.6368615976117211 0.9592757627285854 -1.299783039781875
H -0.2540304906894938 -0.43309923535994044 -1.899289906930108
H 0.3317531017774342 -2.583861392815969 -0.3706659114607844
H -1.3287594160582672 -2.3455690257346866 1.5389105942562316
H -2.225921517821224 0.2493954160145181 1.5823621217032857
H -1.2993327095309493 2.624368386501882 0.4266746495571524
H -1.8032931304289015 2.1387563755853365 -1.2880161294005068
