30

C -5.8776907968965375 -0.6500889946122688 -0.030537129902783004
C -4.705111848013482 -1.2386689618104654 -0.7631733680707624
C -3.5276330314048696 -0.6349217674374059 -0.7841886941791378
C -3.3599898099936993 0.6486408806594988 -0.07079738124255261
C -2.7040727242221387 0.4411905004367628 1.294657923615758
C -1.3525175827577216 -0.17958727469033417 1.1715811406241698
C -0.41539739381437557 0.6575603418287673 0.36699324370708475
C 0.4644461302615214 0.13847040554927026 -0.46662097310460793
C 1.3422259696895935 0.9720969286984908 -1.2172934953016594
C 2.588175524306973 1.047618254477983 -0.7758759562782973
C 3.8148533390728048 0.9648955830483509 -0.3226543722618187
C 4.637349120093035 -0.1135491203637852 -0.8756307575852494
C 5.858800945470325 -0.35003738048636024 -0.076287648050902
C 6.019631595915378 -1.4303638882494027 0.6673120799651919
H -6.161123064597316 0.27667415657174066 -0.5784374113001753
H -5.540713707428085 -0.41402772148463296 1.0072936393189131
H -4.806311784830911 -2.1644169786392222 -1.284087081321098
H -4.342683519846261 1.1289933576251978 0.028821714030745686
H -2.7054985821927415 1.2878394793750099 -0.7073094596327789
H -3.3311699157130565 -0.19677962361198775 1.9179735514036433
H -2.5755949576352726 1.450015179582115 1.7461048567113924
H -1.3448820254265934 -1.231454148928001 0.8781934336848335
H -0.5111733230747679 1.7337045559026876 0.5188458971885159
H 0.4980635382714698 -0.9335406405178657 -0.5615131016071354
H 1.1840263863612515 1.5549134347257803 -2.081230883806113
H 4.055694299331873 1.6973525160195697 0.39539234536922424
H 4.043905812930453 -1.052891747668187 -0.9360247984225928
H 6.6517463700194925 0.38165794362845545 -0.09595136039582415
H 6.8945696664986444 -1.624088661260929 1.2546836880633134
H 5.208075369625552 -2.1672066083690433 0.6801144970773232
