16

C -1.9832641329216563 -1.0405057380320366 -0.7139567195839704
C -1.0965374980877305 0.08338935005525758 -0.22408376579111383
C -1.894424037549483 0.9907568131857325 0.6558498601120757
C 0.08857900534304132 -0.5189745393759879 0.5265991415301771
C 0.9969811428819232 0.5179553195384079 1.0336464578726345
C 2.2426427076096003 0.6133674385644354 0.630833945398103
C 3.3683651683133684 0.47002805355838895 -0.05521261687168006
H -2.724898710673289 -1.3037503688958803 0.06557335909268
H -1.3377484869924126 -1.9238296107319883 -0.8456767350748225
H -0.7412984176132957 0.6359670392968833 -1.130796815018033
H -1.6546062382219031 2.053956214239228 0.5170038273637345
H -2.9900138705752037 0.8497298785773585 0.5475655731286304
H 0.5498559146364171 -1.2493973804998004 -0.1446048790686089
H -0.369034184057839 -1.0131786219298164 1.4338733167037945
H 3.466617547989095 1.0269191036347556 -0.974210758760357
H 4.078784089919316 -0.19243295118493411 0.37145620052738065
