14

C -1.7497616443985453 1.254621906457176 0.005150629133758276
C -0.7330685819570627 0.14747438040224686 0.15787379030054083
C -1.123462076401307 -0.9294728590023514 0.8163106389910756
C 0.5782070247132096 0.37465462268156013 -0.4352856490311961
C 1.5530090296999184 -0.7336901143573066 -0.26647937737208466
H -1.4216528029768458 2.042516660931258 0.7263857021575633
H -1.6820184518889305 1.7049759887187093 -1.0063505389296257
H -2.100974689132284 -1.0631811581562545 1.2414925443236295
H -0.4233381374912584 -1.7377078475611178 0.9433607178292513
H 1.0138576165991664 1.2961910116219835 0.05071523990537687
H 0.543329777206248 0.6342375005759888 -1.5239587004116613
H 1.4084021678903365 -1.5170447101887472 -1.037128173377872
H 1.553132023002501 -1.1709440050709483 0.7527916300913904
H 2.5843387451348323 -0.30263137705229504 -0.424878453610103
