15

C -0.5650817829537474 1.3201380998991625 -0.5150203237620602
C -0.03802927023600862 0.01771724170731767 0.08675751306893952
C -0.8577387944353014 -0.4468992404813773 1.2469424968229825
C 1.4027373490914694 0.2913753367308334 0.4397261546009248
C -0.1461332861854302 -1.053216774809144 -0.9875076202069422
H -0.8745984972447165 1.2097309085823262 -1.5551781050091025
H -1.2879195917662214 1.8049689545029746 0.14635670300392725
H -0.39583528801783113 -0.33917074957149235 2.222294208984341
H -1.9194339754558587 -0.1941573582136721 1.1805506675354607
H 1.8926137018289098 0.653979326567304 -0.4983803980564612
H 1.3924449291258911 1.1710814432428394 1.136252355727481
H 1.9301714536790848 -0.5581097532473369 0.8712616222201177
H -1.188186200324298 -1.1008673326521194 -1.339620696547858
H 0.47618044480466043 -0.740786980647406 -1.8318584708750358
H 0.17880880808937974 -2.0357831216101974 -0.6025761075067062
