17

C 2.486886628516613 -0.22407635603753262 1.2054750029052637
C 1.4838683559054502 -0.8588550330389975 0.2664161797487659
C 0.24962872533428457 0.044190623244361994 0.20028599271303257
C -0.7223158330100045 -0.6231083790759882 -0.7433612924867435
C -1.968833937650647 0.18906927783031194 -0.8748771988236184
C -2.056446800424934 1.314769027005938 -0.19311108326743437
H 3.2229792978075613 0.3996412040544572 0.6842981233183494
H 2.0126245850451276 0.2585883330905818 2.0653418632535154
H 1.1504630120231085 -1.8502493161093188 0.5834670943440152
H 1.8658574594190855 -0.9395175405135618 -0.7643579404180731
H 0.5776946922746569 1.0212408443041003 -0.21960052445537562
H -0.1339973948192739 0.11748358047353459 1.2215355594200967
H -0.23013821307338672 -0.6730991965426077 -1.7352097043339205
H -0.9331937997997373 -1.643429823583912 -0.3682663859267411
H -2.792943408205798 -0.11112371472528289 -1.5031605385001332
H -2.947346970968912 1.914112304864486 -0.27489712329832905
H -1.2647863983730496 1.6643641647596452 0.4500219758071755
