25

C 3.7046991806638636 1.0381464907118405 0.1377069961900804
C 2.6585309678165165 0.6859088988420802 1.1280262449474106
C 1.9790690039824683 -0.432247449149928 0.9732068387104671
C 2.2792713063088956 -1.3070764718103522 -0.1866045584018044
C 0.9778609284333135 -1.4167102575335526 -0.9916551887064388
C -0.015551653848204441 -2.002748088599404 -0.09662202083631188
C -1.1204651057982995 -1.450621221440634 0.2513942280700486
C -1.529858369415992 -0.14994382443044008 -0.20954952570775262
C -2.696581111566564 0.4019327401811191 0.17539589629278807
C -3.0683776015820494 1.7182642566735753 -0.3159455410940193
C -4.206573532579684 2.266100062883014 0.05448159903161346
H 4.047290359716557 2.090151276391593 0.22815934646135724
H 4.581161649227635 0.35728374116639017 0.1834936384080525
H 2.467493223067887 1.3508207541273718 1.963146708982544
H 3.056476159342445 -0.8891632726985474 -0.8527190283799103
H 2.521210998841472 -2.3257566233751272 0.15465954553226882
H 0.742229879599951 -0.3874744365948965 -1.3039153862162371
H 1.1497715114006022 -2.0202071605302345 -1.9137464394080066
H 0.23409654324605703 -3.0005420759177355 0.2942545184862702
H -1.775141149346409 -2.0237680144133448 0.942106746734473
H -0.941620100965625 0.4332737329634959 -0.8687053388293887
H -3.2942963440514483 -0.1776814404425433 0.8368789103255098
H -2.4281559302871085 2.2686116435829895 -0.9864815487261256
H -4.865096267020007 1.7290780452389376 0.7285621164884017
H -4.4574445451883875 3.244368694174163 -0.32552875835395123
