31

C 6.370017457455495 -0.46353789354155084 0.6013111281369257
C 5.607367546147426 0.14824256130904712 1.784328489586981
C 4.372677878606313 0.7139231088649719 1.2593572702102076
C 3.5920140740549797 -0.12580867211722083 0.6054231416395749
C 2.8398428743808126 -1.0575961411829717 0.05230192018017957
C 1.9570805597201517 -1.7423801319799925 0.9335452419466278
C 0.7538945364989396 -1.2082219804789525 1.0664602183971008
C -0.44403775534621487 -0.6647984751751194 1.062857192206677
C -1.357810220620186 -1.1557478384924467 0.03966677625672566
C -1.2638471336560952 -0.4233760412708819 -1.2297115722736176
C -2.2728214196592167 0.2844308063921537 -1.7018415310188157
C -3.506091423567075 0.32160599427278314 -0.9167325874017632
C -4.519812769117243 1.0329389138134302 -1.3914129276354248
C -5.752551503067443 1.0661369087670336 -0.6001252595326144
C -6.782463781143057 1.7668835652920598 -1.0462542024920782
H 6.603757467915828 0.39656920195462375 -0.07419203461664996
H 5.619578292924242 -1.0748471344071062 0.05405155294571614
H 5.415142786242739 -0.6380660748612869 2.542921754781839
H 6.2750799767520915 0.9007945702695404 2.2546805758647794
H 3.9811601342872067 1.6901253777575624 1.3085715421222994
H 3.0075747619321573 -1.1618729876604228 -0.9856369212138254
H 2.084916955842133 -2.6151110964124418 1.5117861206496972
H -0.5771707504837178 0.06423264973926346 1.8139530139445583
H -1.215340713734178 -2.2478213568619463 -0.08941001103234297
H -0.3164078757816536 -0.4892374485563494 -1.7714828826897981
H -2.1841744945556214 0.8190858888569588 -2.64228062570039
H -3.5884225809515597 -0.2126394907153517 0.018721913337882954
H -4.444249274080059 1.5698793671834539 -2.3266591064033664
H -5.837857319748719 0.5350516153679437 0.3321105790829795
H -7.701400463418439 1.806766907631977 -0.48130198261231
H -6.715645823829419 2.309621560022155 -1.9850067866581849
