14

C -2.835985448171115 0.558209423186634 -0.38587002020354494
C -1.7065180911788018 -0.23000077218105275 0.26866215324743536
C -0.429882229899392 0.5096183249962928 0.21060346551391368
C 0.6806406192409598 -0.16555639790594542 0.05420432182696903
C 1.9796231120261343 0.5235149256734563 -0.009968653773314986
C 3.0648388178441577 -0.18351304972706317 -0.1666009790263611
H -3.1391289337956194 1.3930492485395018 0.28050632871720305
H -3.7188947737922944 -0.1460518679348285 -0.3805384636998804
H -1.9368174567951626 -0.3836153863637842 1.3584742633660076
H -1.632509562216466 -1.2528397917572418 -0.15505886841028133
H 0.6284904767558269 -1.234091388039529 -0.02681771110078214
H 2.013513251174471 1.5849145419613666 0.07215839072739103
H 2.99986382905618 -1.2549758440326155 -0.24667717363153344
H 4.0327663897511075 0.28133803358479353 -0.2183037645369899
