18

C 0.9722246478257257 -0.8800844382849042 1.0598742620527284
C 0.8137187431419024 -0.693948377368583 -0.40390710815834824
C 1.836661606182649 -0.22169326445447426 -1.0789687295341852
C 3.0944647609930374 0.10552748311506012 -0.3759459190200935
C -0.45660354668646114 -1.047121385603382 -0.9764473391644879
C -1.506864364722693 -0.5680385245133036 -0.33923552914568117
C -2.4953551971247494 0.026815969472116986 0.29222866606855963
C -2.8417898499252905 1.3608736773460592 -0.1831602685501176
H 1.0925725872513625 0.05951534479833118 1.6124085274788555
H 1.7346046846451622 -1.6374344727008996 1.2920854051850446
H 3.8537094052196244 -0.6882213470109511 -0.5940520449910083
H 2.927402292645896 0.1863421578331793 0.7296291254119326
H 3.5495505979972193 1.0517773622457214 -0.7319294709803649
H -0.7001952191122799 -1.621576953638056 -1.8182437311449087
H -2.9068913495446873 -0.5549028755659324 1.070497449868841
H -3.6968906232823326 1.746970013897574 0.4378778891135762
H -2.021490621322071 2.103822522361271 -0.11511191641917523
H -3.2488285541820545 1.2713771080714649 -1.2091954622153342
