28

C 0.8280805270182242 -3.00707147342494 1.1504389980134133
C -0.03290638120344293 -1.9610535804005071 0.5422383180579957
C 0.4376373800448049 -0.7632034535034764 0.2267552447539485
C -0.3005702239309518 0.3230689238420739 -0.36404934842013775
C -1.753573153970652 0.30645108024025847 -0.7379917980130067
C -2.5193178229169955 0.04965407322246641 0.4730311227544066
C -3.789638189963013 0.3446847498400413 0.4523155667851426
C -5.049708433664545 0.676833625249812 0.3347266849247327
C 0.5402398199837167 1.3234821233219536 -0.5105288719410179
C 1.8524714339349302 0.9384011280499548 -0.026388553953060636
C 3.041850329006369 1.7860841137984278 -0.02578063285985485
C 2.960789241055818 3.01163615068712 -0.4957404588676751
C 1.8037511835760838 -0.31372632795448935 0.41938469217982777
C 2.935692743727051 -1.0891737762145282 0.9994436611319426
H 0.578823011538742 -4.012609171653627 0.8148481788574152
H 0.8742778653067649 -2.9263763626631127 2.2548057764661107
H -1.0692951018703452 -2.20919385147327 0.3619367701887804
H -1.8973240623067935 -0.4669194144451128 -1.5184196839522415
H -1.968342510136006 1.2819571503508778 -1.2165095220190423
H -2.184321115824998 -0.35571742778401005 1.4007506728507784
H -5.279622969805328 1.6701439965358624 0.6070858723584162
H -5.680987802492001 -0.09959890419791399 -0.02217512258409621
H 0.25016411108345793 2.286239422196478 -0.9389067142646998
H 3.8294622877138016 3.650769707658502 -0.5026415753419107
H 2.019212689444707 3.3726069011215047 -0.8740919456541654
H 3.8549155878871293 -0.4900867823953514 0.8744837507629847
H 3.0045068202264553 -2.065056134046282 0.4803424096789805
H 2.713732736537104 -1.262226485958564 2.055104261030647
