38

C 2.123872406464293 1.4573073716380514 -0.759761430681803
C 2.62873231717913 0.0622728558529375 -0.7594295117230079
C 1.5651626937612968 -0.970473777325178 -0.8129647193798145
C 0.6272178389570885 -0.9225758822053659 0.3635606941587885
C -0.285467721537791 -2.086066680161386 0.5268226570699494
C -0.8240843398547125 -0.8291476314417856 0.05739525462937836
C -1.9647152407762085 -0.13225531980535857 -0.33933089870941074
C -1.7040129535315087 1.2372440369336564 -0.6278761733907257
C -2.4802938806830013 2.1931145579021174 -1.024638166774774
C -3.153262354347316 -0.9237749720890155 -0.3774749439924507
C -4.3849422261882225 -0.7700817168935494 -0.6475639881715883
C -5.18962733038231 0.3178612203005924 -1.0575484293228639
C -5.915943796551959 0.9093357961678532 -0.12897834491083177
C -6.6017480899287415 1.4338575274832355 0.864364038822646
C 3.4446468613400927 -0.09775139246239416 0.500370862284337
C 4.728399339500448 -0.3298703572931308 0.4073479284206695
C 5.55901513885541 -0.491871003665762 1.5945334283666868
C 6.838950076598213 -0.723483198965456 1.5217655876872838
H 1.5017350327694539 1.7141388151002996 -1.619921069268427
H 2.9734477899108738 2.159440979673139 -0.7132793604582103
H 3.2999422071899964 -0.05511699984789709 -1.6486147834604121
H 1.9706633113096617 -1.9667511799154371 -1.0109072781480908
H 0.9652341142278344 -0.412410062260852 1.3097593249259325
H -0.5256129467441515 -2.3836107555069974 1.579559489364107
H -0.14799271781900875 -2.9645009052872315 -0.1267278878883243
H -0.6060803095850015 1.5683717784603861 -0.47258403173392743
H -3.509277372258374 2.0930023593543896 -1.209620926123481
H -2.0192601231799285 3.214956762488243 -1.1855630452843615
H -2.9442042194601235 -2.053155051556429 -0.07097079856402888
H -5.037250509177286 -1.7295122592397483 -0.5444434781635101
H -5.313753033333155 0.7548511433007874 -2.0250244855842623
H -7.5546517755685 1.0013467828247393 1.0122094229559728
H -6.102018789268847 2.213589492705757 1.3747760868220498
H 2.958937099656159 -0.01838694905815545 1.4504013620854863
H 5.208015014094403 -0.4077174810156301 -0.5647835340295866
H 5.092723267573584 -0.41643098658136485 2.565358112827314
H 7.339302137347312 -0.8050814332619205 0.5492451785836234
H 7.4382030834406825 -0.840665484345984 2.411662836428263
