14

C 2.0755052315791422 0.2883420784294972 0.056408390918826774
C 0.9784745935037001 -0.5890749973816405 -0.4462242133950686
C -0.13352935445857386 -0.7538052166766283 0.5762286823291164
C -0.7592040209215356 0.5537565908687697 0.9397406559832725
C -1.9661094298391735 0.8852688718999739 0.09313548951283572
H 3.0650294193905374 -0.1991322794575845 0.1023051619260428
H 2.1222123556969685 1.2764221538913427 -0.4626545605556983
H 0.4953011597867679 -0.1501956069879033 -1.3586283012159777
H 1.3565269641273476 -1.60248423530776 -0.6680071721127087
H -0.841657041676282 -1.543808587270806 0.29583921670886154
H 0.38204212543499233 -1.132372233450499 1.5076996257799575
H -2.74683498368421 1.2888573479849943 0.7694954759938631
H -1.7006573576709505 1.7002398131110834 -0.6249785697135297
H -2.327099661268719 -0.022013699652840817 -0.4682695976780501
