18

C 3.263652080079345 0.25157881012998057 0.4786509174696035
C 2.0077950241143774 0.3953544492834184 -0.3179277732737676
C 0.9835132485576039 -0.4227932341082638 -0.1334579674450241
C -0.23333905577830397 -0.22972658926023143 -0.9532373761172936
C -1.4322379168776642 0.046581126054083086 -0.14728551981732257
C -2.122078837594543 1.163683012825962 -0.2838198362581272
C -1.8790946305411484 -0.9552540968469464 0.8453121872420758
H 3.7689613349979 1.2322731164939622 0.588407966325151
H 3.934740159504529 -0.5267001799354138 0.06340499847593968
H 1.9500037542933621 1.1812060410714036 -1.0494963450254984
H 1.0732313611916462 -1.2051058955439433 0.6118024907833627
H -0.05279842870063258 0.579503568095228 -1.7062266254582226
H -0.3593026347938498 -1.190864331409264 -1.5236135640026598
H -3.00977499572328 1.3757619634530762 0.3082336616370303
H -1.84461739976848 1.93672566305799 -0.9947166246956609
H -1.1912224877840003 -1.802194137324981 0.9516707980683181
H -2.8983441238348986 -1.3541571593387374 0.6246301297214294
H -1.959086451342064 -0.4758721266972188 1.845578318998099
