30

C -4.447355881267757 -2.1203790042215354 1.705895742731132
C -3.4471546870168734 -1.120913226884932 2.1582976599866015
C -2.8244705668964882 -0.3417499272412601 1.3201498854792182
C -2.256729150504462 0.40233719002166735 0.4166882387458306
C -1.8123539737602308 1.0352626926128392 -0.6231654160457314
C -0.4829246677775205 0.7367739478937321 -1.1085739145638207
C -0.29067121728374856 -0.32763080814221685 -1.8498901518285558
C 0.9841994478392779 -0.7029243096191934 -2.373895189325544
C 1.5009257607218993 -1.809916163455722 -1.8896429248856301
C 1.9833521377206162 -2.8730173091744584 -1.2672867148941673
C 2.7299368432263926 -2.6181460141484267 -0.0861020512067823
C 3.777907624249364 -1.8351260244616303 -0.20683389694470597
C 4.812478986881516 -1.039782292452978 -0.4214780272497376
C 0.611126737601765 1.6310796233448495 -0.7588868233393347
C 0.41276565959587624 2.7015184310053226 -0.012202490267689292
C -0.9359945472794823 2.9727750558331136 0.4595673556622338
C -1.2228748707482398 4.0255552408034045 1.2139405359753654
H -5.43811390854994 -1.6469462343049046 1.7186522224814902
H -4.4167907572193705 -2.978576036261985 2.378370454082529
H -3.2315949164761313 -1.0400544433026204 3.215886027470015
H -2.399870316041218 1.7749277260186709 -1.1366114741538211
H 1.597553171107308 -0.23822565796235634 -3.095043705391705
H 1.735310169419932 -3.772667535958858 -1.75125178444041
H 2.572970053716563 -2.9683986751793623 0.9064944882766023
H 5.7017902829511105 -1.5480014599698275 -0.675380101862964
H 4.596239640538702 -0.011979352382056323 -0.30779043090651464
H 1.6299934176270992 1.4461870371417862 -1.1021379440195676
H 1.206128051540158 3.3700705878792325 0.2545403622209164
H -0.42982596972337467 4.693883396027921 1.4806371025728284
H -2.2159525541883554 4.204063546551705 1.5473404653503184
