19

C 2.236606305468745 -0.9852016095827293 0.9201983716513543
C 0.9803889689194923 -1.7717412816000069 0.8920009733079253
C -0.03448140277660031 -1.2688330464606392 0.22098168429421103
C 0.014765486372250825 -0.003910936401545083 -0.48067236014858455
C 1.1096897294320498 0.6836624635870757 -0.4571999710479142
C 2.1134154673173713 1.511222247144444 -0.5288942512461762
C 3.0344516731118096 2.4090333633870022 -0.2983573364645844
C -1.1688140143878207 0.44345718923555427 -1.1840310519179988
C -2.356883006601275 0.27498182318176334 -0.6601577082838277
C -3.5067868500901014 -0.08261172882322348 -0.18922858301581777
C -4.594087638604652 -0.6440118800197431 0.2625504195139681
H 2.8030517083991513 -1.2579762121671016 -0.011725209155287387
H 2.8813446888114647 -1.3774692859424889 1.7550280076274032
H 0.8628249430855529 -2.7207249983527255 1.3878589940431536
H 3.8635115095465022 2.244702449709811 0.3774929182198924
H 3.011481170730746 3.3817839948368413 -0.7833612525364877
H -1.1365824795916677 0.9246439904840442 -2.147469593635255
H -4.894532312020456 -0.5027465293622206 1.2918177027546474
H -5.219363947122439 -1.2582600128538408 -0.36683175396054385
