19

C 4.041945559966396 0.5136438641565872 -0.6639754231755313
C 2.6527371665368586 0.2972791883432272 -0.24389379443865805
C 2.322258914909947 -0.7632657912591229 0.48133914345109163
C 0.9296197828474471 -1.0317310624478508 0.9344189134545678
C 0.05480596250991027 -1.280618295710278 -0.21807612903551826
C -1.2262371901360802 -1.0440051076290364 -0.048050121230030295
C -2.4503420227039596 -0.6870242428675886 0.224241967077099
C -2.791399403570073 0.6908887013774204 -0.026610179879597465
C -4.01769903334259 1.0788475746857555 0.23848733016181112
H 4.717268187170728 0.5016792222701897 0.21642337619529467
H 4.1392656675728805 1.517761123222542 -1.150246270155322
H 1.8646387345241477 0.9900310227207244 -0.5109182519120433
H 3.082480343975719 -1.48081664723786 0.7694750612574902
H 0.6206580365247204 -0.1323873062143422 1.5245558623862971
H 0.28307647120742035 -1.623582082579508 -1.1841680440783973
H -3.059349277693387 -1.464843578415352 0.6056824685100451
H -2.103727270238839 1.4158746322979425 -0.4162721580075194
H -4.759173067489381 0.40693464671490676 0.6304455663208588
H -4.30082756257173 2.0953341385716495 0.06281806364651864
