27

C -0.37289563017228705 -0.3271633916991096 -4.024958145608355
C 0.74944019833796 -0.20585688772853325 -3.127312330955561
C 0.536165073250813 -0.6013186763207305 -1.8792361285772061
C 0.19292551735961572 -1.0270813886168968 -0.6887813370996261
C 0.41509018479926235 -2.4119258614584833 -0.456621233577782
C 1.5815415132586297 -2.9812005891094806 -0.24188019372230382
C 2.8384878437818 -2.1987417689310655 -0.21971910846880513
C 3.6016201266982466 -2.4980989885442897 1.0478296925876651
C -0.3403672970259231 -0.053449718124195494 0.1652383296816144
C -0.7902497073110574 0.8048932216660897 0.921787309090988
C -1.3149587083974348 1.840997484643062 1.8063797581255743
C -2.194895016868984 2.720840652567615 1.0447429895811688
C -3.2389664834379053 3.2007916676270445 1.6804913837267332
C -4.2697849163165085 3.610065575675072 2.3939381199872036
H -0.9231113344034126 -1.287424663365506 -3.9563129160154706
H -0.15433362747840149 -0.061646950007030764 -5.0711963305536445
H 1.7328552273412225 0.1393187508087251 -3.2497240661249065
H 1.6459714313399745 -4.044431933497604 -0.07513251061670186
H 2.688548979895714 -1.12432836675881 -0.3165500681722177
H 2.882272432351786 -2.927585150275405 1.7808789351091845
H 4.072702360797645 -1.5825911076509622 1.4323177291434162
H 4.3666495502336335 -3.257907181462896 0.8076771335174445
H -0.5241771944488491 2.4342425847646507 2.2864051197860493
H -1.8438798551993216 1.3050484976389685 2.633878551855379
H -2.1197803881227264 3.036416982520005 0.04196109634618557
H -5.119580155165671 2.982635817991802 2.3491921394812625
H -4.097290125047258 4.515501387566862 2.9147060814168317
