22

C 1.0946195841655693 -2.956270889429162 0.3192596377750348
C 1.161036591262118 -1.5751374605703936 -0.0761582415190229
C 2.330632047330832 -0.9565493910413229 -0.02461153278031465
C 3.382811537677892 -0.22167677959948148 0.01246310569588533
C 4.33606536263963 0.6636972365993191 0.098227456538017
C 5.0575132404318035 1.740899866744385 -0.07545830829669864
C -0.043038618754098076 -0.8845757928098518 -0.5220408423462211
C -0.9461397706737693 -0.4067881702866457 0.2989468099145575
C -2.1324601854816367 0.27461677007677215 -0.16976853942233258
C -3.058324464735388 0.7665474633721097 0.6114313785192922
C -4.248595293470343 1.4517783264376203 0.09642984646910052
H 0.9879703184274964 -3.715113101019243 -0.4207683687017122
H 1.135599027827001 -3.208702248722669 1.3554977333805118
H 4.783104604836134 2.711789694228173 0.31420247209992025
H 5.976521086481489 1.6622272717055273 -0.6367639415618948
H -0.18382370503372772 -0.7685944273778509 -1.5880103933453278
H -0.8049647732020367 -0.5227901829215293 1.3596118038493494
H -2.2660575800747225 0.38733101430486105 -1.2572594030926694
H -2.945876015650206 0.6661217224739695 1.68654124961907
H -3.883031796169581 2.3458077261341868 -0.4838923208027425
H -4.813419189762076 0.768928468426635 -0.5858287482351782
H -4.920142008072525 1.7764528832745783 0.8893589752801163
