19

C 3.5077548566204397 1.0735369115806246 0.7134198088187053
C 2.3517895968130564 0.9187962973153898 -0.15538712428898183
C 1.7512876488287514 -0.25810595589755553 -0.12404787573966364
C 1.1676345998158084 -1.4108788287727334 0.07916139057328768
C 0.1729246626929106 -1.473636530714353 1.1354017931235778
C -1.2014181791561833 -1.6907297339811498 0.7086919725895218
C -1.9411974700089254 -0.6154936602239083 0.5315285646480457
C -2.5476064893835115 0.5230197252799055 0.2955822835390962
C -2.3914703898518845 1.0588884979958897 -1.0477234740425505
H 3.255101221084729 1.1486971064150806 1.7981915508459039
H 4.121510451558875 0.13003826334814508 0.6334763971188783
H 1.8932787761140462 1.5927274292592601 -0.8220007980477015
H 1.4973734202080056 -2.176465654889595 -0.5620824234961715
H 0.28439664584245833 -0.7260869606396564 1.9083168346330261
H -1.7197952707509636 -2.5852423831796028 0.5104265760630465
H -3.071567841983799 0.8960439464648193 1.1305938460254932
H -3.2650698472955306 1.7196157441492739 -1.2704844537643283
H -1.4311255948000408 1.6395301462406788 -1.1572267915199173
H -2.433800796349278 0.23574564024881883 -1.7763263463986356
