17

C 1.5601676163989653 1.98812955307199 0.6547500437117563
C 0.8205695877488708 0.8179956764101263 0.2160350936372447
C 1.5411473492718968 -0.16911766257550573 -0.23002877762512194
C 2.2781749627012813 -1.19355510082374 -0.6218927804056555
C -0.6236494768043239 0.5864859675917756 0.2025671904533788
C -1.0348689300224372 -0.7432841818259139 -0.3202868501807315
C -2.5216703647088536 -0.88770651802755 -0.29715457561600017
H 2.059336870903275 2.514946645561383 -0.1779342444078619
H 2.288867364752487 1.7907318344973755 1.4647877197662897
H 2.4783771481074455 -1.172279191426527 -1.6564281107717924
H 2.55454815745292 -1.8702552277141007 0.13771034008765834
H -0.9859852502310699 0.7234879274811119 1.2554590492203979
H -1.1320221509528863 1.3859559895060247 -0.3791860847348408
H -0.6112919268668342 -1.0162790320172148 -1.2847157243587108
H -2.9794338781700573 -0.413870039146953 -1.1751945268779176
H -2.785535424624075 -1.9600285147611867 -0.24991320380830412
H -2.9067316549565096 -0.3813581258011418 0.6045168170517193
