24

C -2.413135155539938 -1.7562300535548643 0.17456228373023058
C -2.9571920363637747 -0.39921888333430544 0.27562339586911166
C -2.2328500542599943 0.6905739525647373 0.2294125344999086
C -2.8739747067666843 2.043743378720204 0.34100285159375227
C -0.7958800557575985 0.6152804361438899 0.06952386353559366
C -0.125055529445172 -0.4942386937327544 -0.03785659733873655
C 1.2928963553988615 -0.5404146671525512 -0.1947848976999304
C 1.9532597458867986 -1.8704045054070877 -0.30757502496676586
C 2.037100902228712 0.5349644397035352 -0.24368092623082394
C 3.537900840500947 0.4388981555817252 -0.41133883929999615
H -1.749913104709403 -1.9823629199775645 1.0024526661254087
H -1.9545839859348169 -1.9081173825419464 -0.8081015860020895
H -4.029412159599384 -0.30284461141581176 0.39616836843312025
H -3.9261244164634252 1.999404107414067 -0.02347674166578106
H -2.330614685412471 2.782839247989856 -0.26431918476600286
H -2.826929097490447 2.3759323638909646 1.4014256761836168
H -0.2550412501001414 1.5671294330747578 0.0392256725258594
H 2.787853583612616 -1.970256056225637 0.4351929933393863
H 2.2895000283019975 -2.084579089442531 -1.3449665686265597
H 1.2340018868362217 -2.6666821807673586 -0.03281648551163584
H 1.690463248532442 1.553591097725266 -0.17419912383642788
H 3.8690350972930414 -0.5819163172763397 -0.5896803396148594
H 3.8029853203875597 1.145246657337838 -1.2235094199630618
H 3.9757092288643405 0.8096620906818996 0.536713917558715
