22

C 3.7747091338483973 -1.1409286610438225 -0.8525600917029212
C 2.591474770608044 -0.5951264976448967 -0.14735363617299438
C 2.515225919775092 0.5937526777237878 0.44004333399282247
C 1.1736721926808675 0.8022943869279899 1.0468809348367938
C 0.3575836811753071 -0.2167058050691133 0.349791498183642
C -0.927949804995985 -0.12610448406428074 0.1056433720275221
C -1.6562647506827604 1.0587678349867073 0.5382554014699558
C -2.9634448878255317 1.102478664247266 0.2655186961747953
C -3.6518014418199694 -0.013223802997282146 -0.45163571710818723
C 1.290377155011025 -1.322295529127704 0.004582627008802441
H 4.6954782601263485 -0.800632513498242 -0.3211697563121031
H 3.8137396743421332 -0.696805044615951 -1.8700074912721787
H 3.3349678580491204 1.3007912161364357 0.4612204137485412
H 0.8097004668309051 1.837985997311185 0.9010139780326105
H -1.3966679006252567 -0.946128702494712 -0.413215020366941
H -1.2182036631319721 1.87614515682152 1.049072667385947
H -3.53757290640451 1.9850132449642846 0.5800640673238882
H -3.3761611080060714 -0.962704332076643 0.07129462538527866
H -3.2832936828969728 -0.04490413296664399 -1.4910606575259184
H -4.731948722053452 0.16257301889606912 -0.36743264785456264
H 0.9973309764903946 -1.7935500926229648 -0.9643178107767768
H 1.3890487795050317 -2.0606925997930383 0.823331958430005
