23

C -3.331283262995308 0.4442235721466039 -0.031891560957294486
C -2.110412598549288 -0.15064006014637443 0.5804912820712123
C -0.8426387861481063 0.20153839842613006 -0.16261098735180582
C -0.8739155505720694 -0.2792742460954046 -1.5937096128217467
C 0.37721942564407746 -0.34272296485569104 0.5045797942075229
C 0.37633941334533033 -1.8676976087267814 0.6271583446960011
C 1.0373993213873618 0.356608809424857 1.629424765715204
C 1.6404799638003138 0.3561150487341984 0.31104652563957913
C 2.642300252100426 0.7530279607011143 -0.4195402204495963
C 3.5722833153882316 1.1626266834620123 -1.2525049078977497
H -3.064520222381142 1.0771139309622009 -0.9250217860546686
H -3.844408778550422 1.13999601260109 0.6650209773477944
H -1.9986860491103133 0.25245100203138576 1.6086147799098722
H -2.1692582524278223 -1.2594441678170039 0.6688571215158308
H -1.1763216314174176 -1.333410196169375 -1.6884330216957355
H -1.516946087295593 0.33414001876654004 -2.240575180662688
H 0.16360901085405863 -0.18301112289520496 -1.9851508417527282
H 1.3939990210701838 -2.249033367849253 0.8435844392117208
H -0.24590041410848262 -2.0854334804080934 1.5287546582881946
H 0.5794058867774243 1.281795443792646 2.046511596172915
H 1.5663806628613066 -0.23276109175453302 2.399122896827444
H 4.388354964229215 0.4985173675339283 -1.3930491313256308
H 3.436520396098074 2.1252740581350924 -1.720679930633602
