48

C -3.5943056810127514 5.344386225113639 1.51245403259979
C -3.80125152769868 3.943488940766574 1.041920679829131
C -2.536813990928319 3.363570411330473 0.4614403070412707
C -2.6761276436649855 2.1992302767216056 -0.1562347354883633
C -3.124048398843867 1.092508388090618 -0.6784314889366527
C -3.6247236999019155 1.0787859736513583 -2.0582671473630603
C -3.1246066182625394 -0.11051528476744034 0.12756726833589838
C -2.3723614263244093 -1.121334188704279 -0.24549539815124902
C -1.5726730802574334 -1.0319573363403922 -1.4212736220452107
C -0.3570979890326524 -0.5913808399671489 -1.275472870325043
C 0.8792469165171991 -0.23027110361633557 -1.004649962500404
C 1.7865357113364848 -1.274197534981857 -0.6818556169634431
C 2.6138995789191957 -1.047270390883702 0.31266744103473754
C 3.4325221069485528 -0.7101014653612641 1.2665162012629587
C 4.646560721332364 -0.03975645572477184 0.8237197092301857
C 5.562010206971643 -0.7096371836385128 0.14780252878459016
C 6.780890036180595 -0.24942843132455106 -0.3587088116802118
C 7.402326985350282 0.8578462282960285 -0.3632919232311272
C 6.954002715263838 2.135918797524474 0.2436536818878998
C -2.353560614668888 -2.3440061507623966 0.5478894506726969
C -3.1664798500716436 -2.4968619794455895 1.787512047315557
C -1.6034369990569417 -3.3734360852017686 0.1892855914311298
C -1.5561071834261846 -4.6291501306758045 0.9648467763741061
H -4.0856392618892725 5.465222110040695 2.515071001084105
H -4.105931075505965 6.08870608130145 0.8558718269574889
H -4.247952093171427 3.2694831744073407 1.7933895040400678
H -4.5210344095066715 3.9663723162232376 0.17735776415357365
H -4.396565028485853 0.28942591456985894 -2.2302485521372244
H -4.145976787709467 2.040908833278575 -2.3256720644640403
H -2.774588138254899 0.906179226364131 -2.7416438658749223
H -3.7184562497870894 -0.21949637932366672 1.0283336092169457
H -1.8139946694578701 -1.274881832064501 -2.4274384880569664
H 1.030485595983705 0.8160668381210128 -1.0652395161034336
H 1.8993511722727145 -2.21713860053326 -1.1266549484606483
H 3.1288477661433887 -0.9552131848681217 2.239528135866145
H 4.761811716945332 1.011888469832825 1.0693641136828151
H 5.322036351546747 -1.7824064645928457 -0.03826301056355279
H 8.393296347298882 0.9071945141322769 -0.8690292097131548
H 7.704579902210713 2.9510125774864315 0.022154788163047924
H 6.017556292278617 2.516576873792592 -0.2072077236201652
H 6.839848377141501 2.052369682317476 1.361131979208528
H -4.230886971808157 -2.718132269139258 1.5175325293552238
H -3.151486622220969 -1.5884128723457318 2.420889953668738
H -2.7890506235473285 -3.3490899387314697 2.3799100479648727
H -1.0163365519490826 -3.28764045908933 -0.6889703898045423
H -1.0660017135785083 -5.439230886046174 0.3881592239016672
H -1.0306508408500905 -4.511385138182376 1.9347037201942894
H -2.5976627597667012 -4.99480926705006 1.192183773064093
