35

C 0.3562873887542721 -2.7785460151069565 0.07165109565496842
C 0.6778115191891289 -1.5521136992975786 -0.7795142341373579
C 2.103397465420636 -1.22646875107454 -0.6812033516829169
C 2.4980937878672647 0.08890196728220576 -0.1962645058481322
C 3.9693579271632666 0.4572850864078933 -0.06663905866809117
C 4.114871660285428 1.8326579331286084 0.44179968921418084
C 5.210064108280552 2.524964660239994 0.16038258819115278
C 1.6203034452235832 1.0018935367634092 0.14568353716208637
C 0.17962832260752543 0.7790990304584551 0.07181262967661034
C -0.8800336716844813 1.5059310570072715 0.3412158514139815
C -2.1212382897353463 0.7266655029638024 0.06108997251697948
C -3.3365844818030537 1.1865757038921019 0.23428071287031632
C -4.531838016852026 0.4354477581310349 -0.03486416806685789
C -5.716437350528967 1.0323029996864976 0.18678644880122186
C -1.6315383291301861 -0.5481928035340375 -0.4072884568623913
C -2.427418953110759 -1.7141095871066245 -0.844622608756522
C -0.28425734387616913 -0.5158726977945554 -0.399548146100125
H 0.738153659498614 -2.6600948776558546 1.1058733694952927
H 0.6922394968948352 -3.71000766881172 -0.39260347035273346
H 0.41765839590824116 -1.8528586208196511 -1.8394766004868
H 2.6179217770498395 -1.3366050912908245 -1.696045083449908
H 2.599537183198029 -1.9870478850629723 0.002093330491842273
H 4.507466846145857 -0.2769861072956948 0.5341484589971346
H 4.348631273488823 0.43770168291294964 -1.1164903186605244
H 6.0126596626614734 2.1116222254850814 -0.43742184246150306
H 5.329732496579264 3.536379908166214 0.5276233280882258
H 1.963326187047983 1.9838715072812316 0.5060279562816212
H -0.8840511725901337 2.506376891544398 0.7067041944204561
H -3.4437899304980517 2.240520136815647 0.6195229812379022
H -4.602883772724067 -0.5639899451799055 -0.39607147438713264
H -6.604954109568366 0.4673734311679992 -0.015681466854996336
H -5.704707034940934 2.0392348696707554 0.5533941464045812
H -3.0357113215853126 -2.171310294978944 -0.04535677183936358
H -3.0376831933275192 -1.4554727618235468 -1.7513090626428738
H -1.714015631311222 -2.5451290821478505 -1.1642212387342559
