14

C 3.5385121690361 -0.11971953424674289 0.5941223730765027
C 2.0919983373382856 0.1802385868627079 0.6059936330971732
C 1.2739754478920673 -0.5869695424979383 -0.0752398320434113
C -0.17432959067677695 -0.31731367504139124 -0.08587181928071515
C -0.9661068568270046 -1.1000533089504618 -0.7747247244707889
C -2.3802049195901525 -0.8849608395834403 -0.8204948976576917
C -2.99409927368781 0.0833395731014852 -0.19786453821101146
H 4.152121726877755 0.7732804836860988 0.46657025183993905
H 3.7796385262504164 -0.9596751306926653 -0.06330459291184982
H 1.6996265594129658 1.0057692599542887 1.1556782784732311
H -0.5033284674878025 0.5292763728362139 0.48839666656757225
H -2.9687331953881118 -1.5949033099294434 -1.4266366757738551
H -2.459275254006233 0.7894152720403297 0.39769636257247226
H -4.089795209143724 0.2078151864498906 -0.2643204852775615
