17

C -0.932051008232008 -1.7954893759703014 0.7378670565182669
C -0.11232651646785002 -1.2855921129778611 -0.4497759544576935
C -0.8482078037146683 -0.2251954191267433 -1.0832776881307502
C -1.1904780599894085 0.8072448237242241 -0.3677366710760616
C -1.4987999749174872 1.7888399698339856 0.4358614338538012
C 1.210659982058328 -0.9659221839316678 0.03590372937224225
C 1.5848718955018513 0.28175499628854067 0.01691067555689429
C 1.8735757051044606 1.548388702809503 -0.04715305220502373
H -0.4216466316110649 -1.5714297383684546 1.6982294290047042
H -1.14361601761934 -2.8794666268638345 0.6097894585554908
H -0.017697120150749316 -2.13071882988134 -1.1959131399373473
H -1.1581927825435159 -0.17842445868161988 -2.099225544363632
H -0.7886091143256417 2.567420565026696 0.4912820707435622
H -2.42417322184478 1.6973902119142321 0.944279790684615
H 1.9185606157913198 -1.6459927881524177 0.4106902031468654
H 1.6183741221444887 2.116732962566748 0.8208805764487833
H 2.329755930816006 1.8704593017903195 -0.9586123737147803
