19

C -3.1944804204703416 -0.44963273510571494 1.0045480506812436
C -2.974440301228404 -0.13002476341329042 -0.386367702945327
C -1.7488200105953495 0.27190579050836344 -0.689953887376654
C -0.5192965512196156 0.6842856755667327 -0.8614775712385143
C -0.29554448031497027 2.098665126884833 -0.7124234386671702
C 0.4100608793404238 -0.34364395648108603 -1.1685617932171672
C 1.6357865435902652 -0.17731346042668183 -0.6951842543916439
C 2.783236174782445 0.02550335176319943 -0.0812962425786655
C 2.8936025200632383 -0.5052375154529379 1.2723196409543904
H -2.6723773951747574 -1.425391655197373 1.2265319462469737
H -4.289516767517627 -0.6714166712885019 1.1463522719416475
H -3.59492388657948 -0.14878826711650342 -1.2298854461653068
H -0.7246479803956808 2.5886950064227836 0.15941205401682765
H -0.2249964211733416 2.6959413785694113 -1.6209437928329986
H 0.3094670223613272 -1.2368604857159209 -1.7137930956930074
H 3.477912467146996 0.5576882803819911 -0.6692421958446716
H 1.9401954191589008 -0.3905153059066433 1.862782937249746
H 3.6396762054172362 0.13450147130550602 1.8262327501466025
H 3.1491069828084233 -1.5808215122062792 1.3309497697136876
