18

C 3.4676240094813293 1.0681158748255042 0.985450471654711
C 3.178077841023537 0.22203450409954764 -0.15703273732220302
C 2.101198582022226 -0.48154931533065465 -0.3122814778702661
C 0.9215935100260467 -1.0143230107883487 -0.1674572066660838
C -0.2083910054637328 -0.2974581454207574 -0.6725999148423288
C -1.4750182029814811 -0.6980153686166275 0.021214902307668156
C -2.5825204423073544 0.09000847388482446 -0.5632834896979776
C -3.2915387542697094 0.8888678831236896 0.22200706710491303
H 4.005490268060328 0.46360713625591016 1.750632153556326
H 2.5731347288556727 1.5056588447753785 1.4812373771555916
H 3.88126026684824 0.1664933725426767 -0.9231624432714206
H 0.8082154654366694 -1.9418505510174606 0.3104367563974857
H -0.2963288641335544 -0.16146624909979396 -1.7489872015522945
H -1.4033694176297367 -0.5037026640299752 1.089915367262989
H -1.6683386723573381 -1.7787004426118502 -0.13377917769420222
H -2.8297945074276445 0.028555822075242706 -1.628854981005118
H -3.0790146363987643 0.9765564502258338 1.275190405443247
H -4.102280168784325 1.467167385106217 -0.20022095116799243
