20

C -2.3171930865203922 -1.7498165379559407 -0.21757114494145222
C -1.8125027373629774 -0.5125539722027787 0.5074447587388168
C -0.9912901017700636 0.34533102052914216 -0.32255694050034406
C -1.4159479661838177 1.5603506305614883 -0.49983028290443765
C -1.8277179142353959 2.8106925437324097 -0.6144334010512279
C 0.2535610785740642 0.012876227216516442 -0.9836398175078619
C 1.366199087493888 -0.03390539182423197 0.011688993348539014
C 2.443456328813657 -0.718394545587731 -0.26115828044377964
C 3.5467310473001783 -0.7598214434257903 0.7353941575862294
H -3.0149107903246803 -1.45643445302482 -1.0177038407529386
H -1.4512428291980441 -2.2554257307393906 -0.6685482186594507
H -2.6702613560805637 -0.040375697866538295 0.9756886956004681
H -1.161557749826291 -0.8959327171980715 1.3484339794087445
H -2.46258166571888 2.9485704283494147 -1.4401703623690134
H -1.466856712774755 3.4740928374612032 0.12392128029067383
H 0.2623742860268333 -0.9348666547203812 -1.5406301687313206
H 1.2607215231376196 0.5022798176934687 0.9459970435978569
H 3.9841942583669017 -1.7663063135221404 0.7722265941243491
H 3.1599695047345446 -0.48573567492455977 1.7541015178349095
H 4.314855795548042 -0.04462437255131055 0.3913454373312302
