35

C 5.366678971685654 0.046186528697934076 0.6903131696335223
C 3.926875989755143 0.3632475743277773 0.34772805637005616
C 3.0338843221071135 -0.49385942026572727 0.7399313773472616
C 1.6120958614267666 -0.31275019947520116 0.47737114976193673
C 0.7769611652707575 -1.2234091644451908 0.906755795511202
C 1.4438304657868617 -2.38922887647753 1.6501476521678884
C -0.6387380173381788 -1.3185084628858157 0.8037051411441043
C -1.216622702467235 -2.4011030180392323 1.35984904751508
C -1.5278932689197378 -0.3720581163786449 0.16238866209024178
C -1.3307657787240224 0.7618845295830036 -0.4654447940976571
C -2.610644841723845 1.3207934479845462 -0.9281943276113727
C -3.6280961782854675 0.36780981362669285 -0.4953829342398555
C -5.076466978440449 0.43971171252498487 -0.6978250942983054
C -5.633629356162738 1.4490875881639136 -1.3382425919275693
C -2.9957700838853287 -0.597647409294942 0.12824207545366964
C 3.6053008748234943 1.5679561934727249 -0.37945834186688177
C 4.572120072865283 2.394330898193178 -0.7457943208349669
H 5.441999549018215 0.23868566077214032 1.7902659823744222
H 5.598066992390617 -1.008591289297828 0.5085171878641913
H 1.3070896589279262 0.535814601321955 -0.04370982261634653
H 1.0625956328276858 -2.4794313605068896 2.6639652181447433
H 1.2017253919792728 -3.2899415158099585 1.0592821905487482
H 2.51348131622269 -2.173580986653007 1.6700645761317383
H -0.5848707827246107 -3.1151246966510926 1.8393454957012356
H -2.2572532105221534 -2.6047821716681305 1.3608004886445886
H -0.3750005564308466 1.2750151626238093 -0.6530197858932953
H -2.545776783695548 1.412785214312127 -2.0385543855182333
H -2.7197355332678073 2.3290002055935624 -0.47624762229882844
H -5.6978171593983 -0.3374554627852504 -0.32166238714758927
H -6.688865540014612 1.5279931201469479 -1.500931825814547
H -4.991533825737367 2.2281461365684434 -1.7131723691902832
H -3.5546470055617165 -1.4490885790044152 0.5539190862407358
H 2.611068176556984 1.8213230069905593 -0.6357805770093428
H 4.387924474923518 3.3093989355063873 -1.2914452260549438
H 5.612428686731482 2.177390399229155 -0.5052376814460998
