20

C -3.609788238621005 1.2675291479293749 0.9434989025408113
C -2.796015643368402 0.7119140791582269 -0.19585733545283676
C -2.6074011872750065 -0.7369763582613919 -0.13790010882610876
C -1.4038596320044696 -1.2887274549426848 -0.06558317548916112
C -0.2526188976827626 -0.42534377807847407 -0.04401909004019069
C 0.9868991381848882 -0.8794198018035203 0.02652421961147105
C 2.1282218582190815 0.025868718535410406 0.046207621087626445
C 3.346846803525302 -0.49941528087669895 0.11823462823268968
C 4.564991813087911 0.3446656434699316 0.1434172603773218
H -4.4802845768136965 1.8673001048378537 0.6067168094057954
H -3.8848358146302404 0.5074457873701693 1.6965598230657024
H -3.2625858443285147 0.9640321971237896 -1.1881430989790494
H -1.799419348070642 1.1978283049117353 -0.16038321750852977
H -3.4732566461716385 -1.396071553571002 -0.15376739466114997
H -1.25833538131428 -2.361561645659192 -0.02239814077269514
H 1.115818058549631 -1.960609476433226 0.0692474540265244
H 1.9455923066419176 1.0745810016778128 0.0022741665800695577
H 4.54964303920187 1.1621122770857832 -0.5903574686899609
H 4.748686633436193 0.7524139866873785 1.1422654610136447
H 5.441701559433759 -0.3275658991612005 -0.08568019928581254
