32

C -4.510532905140507 -1.7717854102323123 -0.9321118082962689
C -3.9865676531540775 -0.5564615403134021 -0.2732140355381897
C -4.80188712049915 0.43143387604785793 -0.00011972509408111655
C -4.276642197608688 1.653239545616514 0.661975363589544
C -2.548034609226246 -0.4806325749858614 0.06516852472912604
C -1.7129895679145535 -0.6096653226562289 -1.218320205097521
C -0.2921344233421452 -0.5336468593878184 -0.8750833364447513
C 0.3491878658388569 0.586868429866895 -0.5915834862130012
C 1.754018111681328 0.6192811314288831 -0.257278630006633
C 2.4593244689956317 -0.47821937968651945 -0.22127092348100907
C 3.8998203744997593 -0.538038398622358 0.11050702405393233
C 4.540109992544227 0.8157142955718383 0.16969117182436072
C 5.975215158259089 0.639133717100039 0.5079925832807094
C 6.496734110062518 -0.569961530589282 0.6583109764551784
H -3.774832766725255 -2.595777121145034 -0.8718996791463262
H -5.404395855361209 -2.1175075792237434 -0.33636365085116937
H -5.848203860964274 0.36349155379520937 -0.2520501982923323
H -5.079358156143355 2.3916136607014455 0.8570070091956165
H -3.4869269088369395 2.0779547035988672 0.006149800841004001
H -3.782381591922377 1.4267796880494934 1.6372743747948015
H -2.2775819729187536 0.4907856603159852 0.5456139012442521
H -2.2388713767047603 -1.2615305151379543 0.7898908025356975
H -2.0157237731568904 0.1529617120616656 -1.9528052526086475
H -1.902376545231168 -1.5967787666145856 -1.6890466223517928
H -0.21048821694619602 1.5091894966685742 -0.6140760749157411
H 2.2316184651369393 1.5524440713356529 -0.034463656788359893
H 4.3852313170631705 -1.1546503550879281 -0.6933324597230192
H 4.048934632283896 -1.0313986399240866 1.0933557793274233
H 4.421970073511338 1.3495993109765005 -0.7954560459792843
H 4.07890274889034 1.3714754682228574 1.0138336491964473
H 5.9584272295794 -1.502435220245767 0.5552962469616433
H 7.550434953449788 -0.6334771075054146 0.9051368959918363
