39

C -1.9228427636867969 -3.4053364690844004 -0.3518281012483534
C -1.7244313757808163 -1.9279895402835203 -0.595194547006376
C -0.5234964143989124 -1.375683700177537 -0.5462218774799861
C -0.3485295943166027 0.11477425807715481 -0.7935088287542278
C 0.9294953979456033 0.4796977168326205 -0.14270001480493064
C 2.06257844187985 0.27287176565031757 -0.7787397938499555
C 3.396238013181309 0.6136037051354664 -0.19138123226353093
C 3.190810117084929 1.299430388904067 1.1030624020498012
C 3.185836663796476 2.6153004609943418 1.1624468682954505
C 4.220473387123413 -0.6097064090382965 0.020032970061985494
C 5.209564924634111 -1.45714247958243 -0.20902244078183513
C 4.314994431123603 -1.8388288044679901 0.8915068233435507
C -1.5183127734458126 0.7894834364255865 -0.138363400350683
C -1.3568235411042764 2.0687289558168067 0.5604518513436801
C -2.7239101404779547 0.22416100894028193 -0.18883767270533014
C -3.917360757650233 0.847574208568137 0.4438825384142495
C -2.892016985969905 -1.0667446225066604 -0.9091072325314209
C -2.918102425249581 -0.7646257974677241 -2.370144341679583
C -3.187822247872247 0.45398006746174935 -2.763375669491988
H -2.357265309678842 -3.6028412813085295 0.6426228456729465
H -0.9707834742621483 -3.927737327699932 -0.5030058116343041
H 0.3183288323933056 -2.007720833900493 -0.32816502065996506
H 0.920703874214239 0.9114730183360479 0.8464365980943821
H 2.0312737975314428 -0.1615079171631087 -1.7667292001392179
H 3.0439619097849375 0.7161693648073173 2.005302713300808
H 3.036060276177 3.1218309374691255 2.1061534367054895
H 3.3304443473941174 3.237401040699799 0.2762764781101003
H 6.081239706693098 -1.6891330803983968 -0.8115358662998255
H 4.720801988476313 -1.7215394466089122 1.9184486865766994
H 3.6245582693222573 -2.6725278274675404 0.6933818452266659
H -0.34449625629670894 2.4755203636590553 0.5337992327726744
H -1.726284086599879 1.935922936831038 1.6102546977817966
H -2.029720641209885 2.869392941461675 0.13846551399223056
H -3.7699822050427523 1.9109210191604675 0.6340146831189108
H -4.149204010979948 0.3103905988396348 1.4078053583777794
H -4.797975885493962 0.61678534337437 -0.20967970100632893
H -3.841614138984421 -1.5631682743467041 -0.5890511702620299
H -3.3872269214713895 1.2248660118578398 -2.04763297062495
H -3.2091624287802465 0.6819542621989325 -3.812780727524917
