14

C 2.448472516184043 -0.36497064500322934 1.4527815815894034
C 2.0601383810030796 -0.988315595883795 0.17961696039689287
C 0.9214017956158694 -1.6060627823615776 0.07690134424592464
C -0.3759401099745189 -1.8422050321089252 -0.09916188147453038
C -1.2989813435775908 -0.7578355130415041 -0.3882237043820808
C -1.1433976117188056 0.461361391565964 0.08073487432646076
C -2.0838498783908816 1.5634732428768277 -0.21459100163652262
H 2.639048874616242 0.7252638752139197 1.376031024028067
H 3.3195958759363617 -0.8923382104741205 1.9118510078336555
H 2.7050514368273677 -0.9343649109208919 -0.6651448783849648
H -2.147480698080766 -0.9591660704175814 -1.0131605053801647
H -1.8361510697457262 2.4450228452797544 0.3904240909722785
H -3.1381486130822975 1.2935401965585707 0.04360810203985719
H -2.069759555612888 1.8565972087165648 -1.3001285075478453
