18

C -2.285160210441931 0.7689775325516178 1.106050727819244
C -1.2108706683583583 -0.12057347403391347 0.46568635636459094
C -1.862007173031568 -1.195637107206391 -0.3872035858043054
C -0.3890796806052764 0.7260035556275211 -0.38240605513809317
C 0.8243288945816539 0.27550912087858126 -0.6501491572631701
C 2.0427525434074245 -0.21561846457656 -0.7655599882125793
C 2.986854301949837 0.18381254264788807 0.27034190575698497
H -1.9147034724682963 1.2281926812771393 2.0444815586568867
H -2.5431225011566734 1.5261044664248378 0.34786111491186783
H -0.684053569566766 -0.598928274844887 1.3038159419993636
H -1.947120033086057 -0.8250741767692135 -1.4352932269326317
H -1.3085539422662298 -2.148232978522622 -0.3484818354794568
H -2.9142035956652643 -1.346945768223488 -0.008421884833822056
H -0.5865214641478178 1.6584977080762517 -0.8346522737650571
H 2.1603855542383914 -0.8386345365990046 -1.604796265645146
H 2.8699690291112554 1.29360481223498 0.4316737547489133
H 4.055325153899445 -0.061556650012170755 0.029430749526311018
H 2.7057808336062465 -0.30950098893042705 1.2447772204701675
