24

C -0.4407592029683363 0.38021191012550126 -1.9939818793912223
C -0.24700967805730223 -0.11059536429118351 -0.6107955030361784
C 0.8845123835478088 -0.6358669854994404 -0.2563875540495936
C 2.078038231555035 -1.1065933281954048 -0.0360674712391501
C 3.248208758227293 -1.4126898929887648 0.47215729959779945
C 4.450590935750083 -1.0439711792152262 -0.20898139811745217
C 4.7614953889248355 0.22191485988045706 -0.2134825821738402
C 4.999836009179105 1.5107932772952006 -0.16929995013010185
C -1.325226697850303 -0.005089930441099477 0.35467249488344915
C -2.567856136602454 -0.2882685326489486 0.01401249960348925
C -3.5947105287878864 -0.1672060830731134 1.007409275374028
C -4.783834309216466 0.19893620772617363 0.5776968728443076
C -5.932944182139522 0.5697622764467425 0.05510498956027437
H -0.3473673525239812 -0.4109838258011342 -2.745777034240938
H 0.23187946013371039 1.2422463953957485 -2.145736670471866
H 3.2887538412098096 -1.9465437103122172 1.4113357689452761
H 5.1425799153235605 -1.6666211517919314 -0.7233840300582005
H 5.576820873964546 1.8284019139198042 0.6580645881314456
H 4.582492246759293 2.0668139355964237 -0.9681232075825749
H -1.0479207538810968 0.3165638708811244 1.358728456330877
H -2.7787753102380295 -0.5953816967109906 -0.9738624005134009
H -3.5475301171149325 -0.32808301367162424 2.0479162854675503
H -6.5524667912856795 -0.2332722886544402 -0.25167330604753896
H -6.078806983909068 1.6155223360282358 0.012833923644753071
