24

C -3.734967215839024 -0.649716884519263 -0.36199768562467355
C -3.0855826075182002 0.07585928641908779 0.7718858078424659
C -1.681542412391666 0.3867060187468662 0.4232230175570709
C -1.371906591273586 1.5577417160229858 -0.19998729811024551
C -0.06412760577191776 1.8425474833575572 -0.5224132321372856
C 0.9612372181795525 0.9349855326603839 -0.21483519383466362
C 0.62089843398443 -0.24240508939376615 0.41578679190115586
C -0.7077520017683763 -0.5211119558836017 0.7380832250671989
C 1.7098468833666762 -0.9730904544910325 0.6269053856798207
C 2.859404163249697 -0.23156014497378336 0.10006867811826582
C 3.663254673417225 -0.9996692712803453 -0.9080523590603702
C 2.270735865476403 0.9959357815837706 -0.42657290583456514
H -3.0786316627412935 -1.458995613843518 -0.6903043738964267
H -4.747919556233452 -1.0082784204107613 -0.11527429687253901
H -3.653227657101791 0.9907514327851656 1.0039683834550677
H -3.0896412905953055 -0.5999340645442098 1.6529859871183608
H -2.1851175971347474 2.2588239577455784 -0.4346698344429314
H 0.15976919531175002 2.7858464405152943 -1.0208793723589946
H -0.9650016158158503 -1.4466259942072353 1.232381879943783
H 1.70583629329298 -1.9366420822476424 1.1049229783402135
H 3.9182817044367 -1.99292427047317 -0.5045863315235621
H 4.63777834180186 -0.4540454648403759 -1.0437528432341527
H 3.139585122903369 -1.1668217816474673 -1.866055834288413
H 2.718789918764568 1.8526238429194901 -0.9132088806706283
