13

C 2.603363378835649 -0.13282739519284553 0.48177869031025716
C 1.5704710676764246 0.9059246915244047 0.30489547587613974
C 0.6807282912686077 0.7604932572498222 -0.6388191735488039
C -0.3735176951722751 0.46817207250285414 -1.3506696849375086
C -1.4091281006300522 -0.3941642499518657 -0.7623597826614393
C -1.660879933172216 -0.12005623490967661 0.6989653602698254
H 3.071407117397484 -0.4597649976229994 -0.4483013509496218
H 2.144045298118337 -0.9773765618469873 1.035911624588967
H 1.5437804875264334 1.7659104827061933 0.9404939328959925
H -1.2152240367614424 -1.4751164041026852 -0.8816760142986851
H -2.3625770990448514 -0.18053407870938507 -1.2949465659868742
H -2.2710387397844514 0.7994135695714891 0.8538413089433408
H -2.3214300362577105 -0.960074151218342 1.0608861794984112
