23

C -3.3967418001527614 -1.1526117090647072 0.058486332148587034
C -2.315887444865144 -0.5067543760718696 -0.7979841829221189
C -1.5685633102546908 0.515166479017768 -0.11530642769276603
C -1.9445613175760434 1.7556077834732746 0.49699247184527573
C -0.2721834978857108 0.2917889112153719 -0.01788468564954118
C 0.9999366899356489 0.027349143298702683 0.017688512323335237
C 1.787051985980761 0.5024134159434449 -1.06902316585868
C 3.088759740658344 0.21687032806582518 -1.0078303223054483
C 3.6864771642422443 -0.5336765627557618 0.09490168411977684
C 2.764242245189114 -0.9701707518988726 1.1597488512406036
C 1.4389674053945236 -0.7111336615723978 1.1523984098198299
H -2.9655069130797655 -1.9369161544713123 0.7238481781288449
H -4.0705278768475015 -1.6855476232716233 -0.6435752211284097
H -1.737301284333993 -1.306920489336713 -1.2408603523191015
H -2.8831458891226176 -0.019210901387400458 -1.6459173981655943
H -2.9999056363901455 1.9950091496687168 0.24655911536845806
H -1.3497543441801485 2.6476031330315295 0.18309628744881523
H -1.9225369936299974 1.7098092020477444 1.6254063377186554
H 1.4217836564165662 1.0614819122920043 -1.9170912632127846
H 3.7340596628148326 0.5668281995167702 -1.8301681502884581
H 4.448615685245805 0.12827338949849898 0.5799150204989969
H 3.206961029558328 -1.5253037861914454 1.9751911769339832
H 0.8497610428820895 -1.0699550310475217 1.971408791947612
