27

C 2.475028368820518 -2.210320830356967 1.7633866095317312
C 2.1405208107650595 -1.3350277086822389 0.6199829170746988
C 1.0380282076120164 -1.7167981450889125 -0.2311606968770026
C -0.1618338560577163 -1.6921407342711385 0.3332567674075036
C -1.3600730023842251 -1.423245082454888 0.7762706116418626
C -1.8376875907901655 -0.0253861162028082 0.602791064229482
C -2.814032120473991 0.35305277093000054 1.7093834298594466
C -2.6502515462395446 -0.03175783994635187 -0.7000557337119041
C -3.2008520739061437 1.333432468012598 -1.0041116098378677
C 2.853862845182788 -0.24817774874301843 0.4206894329439051
C 2.589645876649696 0.6726027573090447 -0.687344386703433
C 3.2818119092831988 1.7519193371631596 -0.9028004794449365
H 3.575014731222805 -2.382074808194011 1.7343613771132775
H 2.289668465063572 -1.6109255956299076 2.6934101479459094
H 1.1318177115348764 -2.0061812506378445 -1.2600174742859593
H -1.0397360300042184 0.7154848665010941 0.5907436551050363
H -2.633790934340899 -0.2620961076370784 2.6241979419034624
H -2.73508101144736 1.4314688787209866 1.9716773959850389
H -2.039894410560459 -0.44500553568452605 -1.5231919695013845
H -3.5110932491692983 -0.734690881168866 -0.5118478769423034
H -4.226698140655995 1.2170735512507447 -1.3860432241526184
H -3.189014332694944 1.9239226444193676 -0.07431573241659029
H -2.6102484407602615 1.8027320286895006 -1.81523614499312
H 3.6751815333391202 0.01158628529702573 1.0768013956897522
H 1.7744967945712484 0.4292828245363308 -1.351477488317864
H 4.123324739944555 2.0704598307515782 -0.2773334547011105
H 3.0618847454964864 2.4108101411178042 -1.7290579445223115
