48

C 5.189011806422855 3.08769338975619 -2.6087245481878987
C 5.083835383097876 1.7645857690840399 -1.9631628813289441
C 4.022123250319152 1.4109179983932623 -1.2839201776420215
C 3.8764371226433214 0.11811522435335035 -0.6321047747836978
C 4.82739709002724 -0.8837617864945296 -0.6484875123799841
C 4.341654159204179 -1.9651096644908268 0.07510246396264954
C 4.73246941814313 -3.229491500764032 0.45115735862836204
C 3.921271409446294 -4.026982648100448 1.206871557442889
C 2.6069525660485886 -3.624860273039355 1.6706556766373255
C 2.182681241650007 -2.3916564204258015 1.3249924480356285
C 0.9111455086130498 -1.8258344099724815 1.6943078704024672
C 0.5673646081908599 -0.5808061298122286 1.3038688523022768
C 1.4440513539267597 0.27882121063468784 0.4881498557276825
C 2.736960696189097 -0.3539590211277075 0.1384294403217872
C 3.0428388434770306 -1.559129866774278 0.5295473820369642
C -0.7335431618263141 -0.3807205826941982 1.8517773006476463
C -1.4200089366049142 0.7044588056822367 1.6979962747716184
C -2.1869128209402726 1.7476599075981096 1.424884298303951
C -2.990084568334114 1.64759863113341 0.255335318123377
C -2.3776882750643122 1.1891653450818969 -1.024262025573804
C -4.275774558879463 1.9444326513164545 0.23940171809439056
C -5.111320796793285 1.8388017066412863 -0.9835025464681163
C -6.522968808405447 2.310924922452891 -0.7164625435209289
C -5.177693103270703 0.44461987353303745 -1.4990602845368408
C -6.144031586204635 -0.3378942509431761 -1.0271022647073527
C -1.1784555139736466 -1.5186384216718294 2.580768415234793
C -0.17609513146948896 -2.418581954396014 2.493425902240156
H 6.074227502905612 3.6106106325853586 -2.2495516608240735
H 4.243501224887589 3.633361327627092 -2.453563380866126
H 5.92169932491891 1.084564741444048 -2.0685991004583513
H 3.2104034078887143 2.1102214753765884 -1.199960182953151
H 5.757768812906172 -0.7319082973841573 -1.1727378077173143
H 5.708392869041775 -3.669329571749176 0.17018056081358124
H 4.310658832831848 -5.002687142302494 1.454031325924686
H 1.9541883532226811 -4.219139835753224 2.257479704845742
H 0.9056540379215767 0.6578112245997331 -0.3994620522716174
H -2.0712055929053204 2.5037410020767616 2.142825255936952
H -2.9530822845555074 1.4676919912031414 -1.9082329723117637
H -2.2100797237578242 0.09713457410626128 -0.9126815211644258
H -1.3439737794797961 1.6410975238268688 -1.033852226881784
H -4.725288473257697 2.4727109041910933 -1.8177254546198378
H -6.872623504490174 1.961705196564774 0.2771023325385479
H -6.533649649511224 3.431082577466985 -0.6826650726687494
H -7.202152526125407 1.9800794581919212 -1.5152295938693283
H -6.876157520837731 -0.01211197323398244 -0.29399089920282995
H -6.202757623578464 -1.347374982688532 -1.3916717342166667
H -2.1213297982807657 -1.6522432102491595 3.102986812773854
H -0.16581108537852252 -3.4073861208543317 2.932326539406552
