29

C -4.192175124525798 1.3702270210172827 0.24565936477096265
C -3.699598231077645 0.28715901429319846 -0.7014738544671595
C -3.0571640360679835 -0.9332387047414057 -0.20897146374892062
C -2.181553155542427 0.1719477983171565 -0.8167037613216038
C -1.359216279009498 0.8815040380447892 0.15367681921943782
C -0.6099459928980797 0.14553904196302594 0.9352423734006239
C 0.18055369188458442 -0.6768834736666767 1.5836686460459386
C 1.4429868294573966 -0.9623716671046129 0.9727021945172165
C 1.8167533473161073 -2.3822696704072697 0.7481691893499358
C 2.269809522858635 -0.027288096196710045 0.6092331085144652
C 3.5711227163645423 -0.19924055939552723 -0.016555243164401122
C 4.07889749130075 1.005721027496465 -0.21914143266606104
C 3.1650343804575103 2.040077891915796 0.2502043241002976
C 2.0869143805813106 1.4126069725422177 0.7434839722919658
H -3.903976836292099 1.1576009045798925 1.27482650596461
H -5.2465199569592365 1.6141176545875007 0.08360815826576781
H -4.291200140524053 0.24159007180737466 -1.649178662528253
H -3.195762387805409 -1.8472948791967774 -0.8435478950484719
H -2.940360880142735 -1.1571617207100273 0.8538781068650801
H -1.815631498430634 -0.03073630530537262 -1.842155826156615
H -1.262531097957176 1.9157511609477884 0.33643926292296406
H -0.23116357950643782 -1.0247561652175114 2.4865128014600515
H 2.7122687656001974 -2.6153675529179 1.3817790161341865
H 0.9713566049607693 -3.0689998815490838 0.964697843359929
H 2.077226884183581 -2.4600484430231666 -0.3411633410860478
H 4.068062278310608 -1.1280841771407741 -0.283758914107392
H 5.046101693954572 1.2392169531947324 -0.672442606486639
H 3.2853675816682815 3.1233131533151495 0.22828679033979624
H 1.2143430278396425 1.9073685925507369 1.1755067997731579
