15

C -1.2098802989771433 -1.7665067529696248 0.22307252213670473
C -0.8491128719648597 -0.35976217704873825 0.3778591704692372
C -1.5197207502834262 0.6921585640740332 1.0533119001532987
C -2.458574454195224 1.3895759233142595 0.4706180975870433
C 0.27015992596348554 -0.013436939462106114 -0.19359244839926668
C 1.4723411779680362 0.28063976355549364 -0.64198632206277
C 2.5794707773250054 0.10178645160054635 0.28465235202213934
H -0.577502338091657 -2.3630547009108547 0.9093274278659337
H -2.2629553142593 -1.9954945209268387 0.45290141406000006
H -2.731457964288944 1.16751215843251 -0.5361247685845486
H -2.9518069588967117 2.1775948095152424 0.9956689960321378
H 1.4611147522709789 0.6114620712627461 -1.6319222779095026
H 2.4213936152907665 -0.7393904844378769 1.0002361274041915
H 2.869990454773513 1.0175418249020909 0.8358306713855664
H 3.4865402473654545 -0.20062599090089459 -0.31804750400195536
