16

C -2.6625408062208944 -0.9083463380972561 -0.1898010080727764
C -2.0436667098191035 0.4546483682691145 -0.021707697811189423
C -0.7683536797206159 0.6639679115214816 -0.2794540386948155
C 0.08630513242018856 -0.4868467342017568 -0.7522448832735806
C 1.156870142282571 -0.6595995307384751 0.22027974538498335
C 2.241563206673739 0.03220812193150844 0.031903703476264055
C 3.3028705225115242 0.7805572576154298 -0.2106754830278232
H -3.4039130176903836 -1.0159019563310527 0.6273394362771229
H -3.2187328087094222 -0.8842600120532353 -1.1366583747529406
H -2.6846414862954595 1.2568952849106283 0.31872881760997634
H -0.3584740234350713 1.65155514615393 -0.14837921197358597
H -0.535251400942769 -1.4043639030383885 -0.8019177986841978
H 0.44524664239996314 -0.23440243355634638 -1.7678178547508223
H 1.140589468365224 -1.2877122679953954 1.0595763942180605
H 3.281319785320853 1.7325069111817426 0.2369766713325358
H 4.020809032859638 0.3090941744280719 -0.8231425757682077
