16

C 2.086875404661586 1.2173643994744308 0.22926771217962916
C 1.2830612412860076 -0.04837437757582581 0.038576303452235366
C 1.7381513769273769 -1.181490155448816 0.4850194399751479
C -0.008061272398318753 0.13107107785247366 -0.6725936615363448
C -0.8686212045462118 1.159725928572852 -0.03973794192941357
C -2.03494784031397 0.5951567380879231 0.19911643838472132
C -1.9982577330516846 -0.8116264068225615 -0.25848348652119774
C -0.8148124695762776 -1.074263093897867 -0.7648200918478549
H 1.4100077969570581 1.928036543929217 0.7539184831767676
H 2.1855518596871986 1.6379131809935537 -0.8130993451627657
H 2.6845846716473836 -1.2269456558545209 0.9905715217914353
H 1.1699824521881523 -2.084428557334577 0.35174113973556304
H -0.5593071958014698 2.1629649452103106 0.1665795877863188
H -2.8903926202321966 1.0763600848940869 0.6571843951229392
H -2.865044852621886 -1.4682960320287988 -0.15587883647116127
H -0.5187696148127648 -2.013168620051884 -1.1673616581360255
