39

C -0.6441111835862627 3.866142766498266 -2.406795869374329
C -1.2016298173748374 3.02791685357915 -1.3278299799797664
C -0.7430220871147786 1.809968974549013 -1.0875535429218388
C -1.2489619270970331 0.9378108775743442 -0.042471053918079274
C -2.2067349734220647 1.469998851621217 0.6544985855585939
C -3.14697756069336 2.258204135701994 1.2088733282656163
C -0.8354662220674581 -0.3743744752234129 0.30089269235037486
C 0.15903996616652422 -1.0007980545768358 -0.35914911434581415
C 0.9967597023552738 -0.6450637377238911 -1.4333532781306957
C 0.8389665003204075 -0.8223794902208443 -2.872682315822258
C 2.143857853186198 -0.1011019927747678 -1.0520903004071769
C 3.360641978547944 0.2796786646617469 -0.7276633043952438
C 4.349587193003015 -0.7161391281983485 -0.5424768080677619
C 5.596874930173144 -0.40350425321424915 -0.21464583741253082
C -1.4101252375268631 -1.1706016921329558 1.366856251696622
C -0.8008576056501517 -2.558575673530658 1.5789946210153412
C -2.363715411274262 -0.9044012163182376 2.1892215150816683
C -2.8224735080126995 -1.886058715530566 3.246584932813798
H 0.10190116434979075 4.611937511841982 -2.0370187975115304
H -0.19707627470210673 3.259536884607582 -3.235836836690222
H -1.9971598420427321 3.4238132570256896 -0.7295728064722342
H 0.04068455127022345 1.4987429656980975 -1.724659114428576
H -4.069950652451751 2.1042316181619447 0.7522202231044908
H -2.750073419700231 2.8412751012638644 1.9729605670859163
H 0.38646721908002685 -2.0437831336597467 0.01197321968100696
H 0.9853718542648849 0.09726627381847226 -3.4731291262576023
H -0.10177243280458033 -1.3445859705359027 -3.1559417743839506
H 1.6602696693736931 -1.52146248754302 -3.210583771265871
H 3.4169789732238813 1.3228671895142685 -0.6510332426569925
H 4.1539990334777315 -1.7702514104756149 -0.6541435798290736
H 6.369052990936413 -1.1349994609269791 -0.06728389459421573
H 5.850078370509496 0.6306339248240175 -0.08973886014970217
H 0.25943665719020575 -2.502424078578446 1.844484683333258
H -1.2798115762816349 -3.045520611168843 2.4797326526215566
H -0.9510288542330572 -3.2076684978762757 0.7216526583935484
H -2.904175797228746 -0.003708535858990481 2.205094172292768
H -3.220795717226799 -2.8059994341733634 2.784147713069298
H -2.0687397254544626 -2.058861098052515 4.006476498757032
H -3.7053087814813543 -1.4177627026471802 3.770988893892858
