21

C -0.7399017080967559 1.43012567286384 0.7297118765835435
C -0.7047812113560558 0.6954988834424075 -0.5181595426506016
C 0.3527531114905625 0.018492063327018533 -0.8170374585873632
C 1.4917545112265707 -0.03989751923053024 0.0876927759268961
C 2.7919274687611333 0.516931691531234 -0.1468010977529815
C 1.2168061865490056 -0.7115582294079514 1.2214149103534264
C -0.0002709911968159074 -1.2606306796965372 1.3150772942974975
C -0.769568609459716 -1.4744819731501748 0.12005368376145137
C -2.1760423102820723 -1.149694974397316 0.06925687775601191
C -2.621776968732722 -0.49078026160810906 -1.0107256366902733
C -1.9738176167006107 0.6478140722243323 -1.2381315324897861
H 0.25429616638461466 1.5709493242984756 1.2111186937643288
H -1.0824164361692141 2.488205209291801 0.5710469613498407
H 0.40116189646538086 -0.4580181282176265 -1.721851238957167
H 3.0340283006112942 0.4991254786548616 -1.2487432795866449
H 3.6226478624652496 -0.03414509400660924 0.3319654568230185
H 2.838987417003737 1.5492042488714208 0.2527703460296774
H -0.34925123334696917 -1.519041146636392 2.292455339466708
H -0.45946636324935514 -2.3390230333281212 -0.4998198401794881
H -2.874407627857532 -1.3928442207035272 0.8179058633288326
H -2.2526618445096993 1.4537686158774406 -1.8192004525469088
