15

C 3.227316855606735 0.29516553021029535 -0.5125163449937862
C 1.9368694065468046 0.9403089910592906 -0.3827720793995887
C 1.01467600206632 0.26882953751676886 0.2782918747223628
C 0.15271927575187566 -0.5102008848726143 0.8969766494045626
C -0.5700705272233068 -1.4052600235734807 0.047720269404418716
C -1.8409798029852122 -1.1740450731933845 -0.20767341339131726
C -2.5689981998372593 -0.008913687461943171 0.3542413496078847
H 3.596350696436662 0.19275349607052716 -1.5537767722829332
H 3.9724614107711154 0.8628442170769189 0.08679231461471788
H 1.5891312045970962 1.8718230280503034 -0.7294609559683919
H 0.11497506851550154 -0.36663445446479603 1.9404900327609802
H -2.380375069395103 -1.8469445434330243 -0.8448420966650998
H -2.2679343309897786 0.9083559046388858 -0.19045808630443806
H -3.6506116274515428 -0.13470582678717638 0.25579142238899777
H -2.325530362409788 0.10662378916348793 1.4442323619126924
