21

C -0.9498605849679975 -1.7054384969235457 -1.4926345975350372
C -1.0046527480611136 -1.136746273201661 -0.15966025067296505
C -2.0998673492998843 -0.4484685057367467 0.09336327646360025
C -3.1259374198085808 0.3531598384664895 0.29443795254549776
C -2.929998367740428 1.7379832112794047 -0.07280576512059363
C -0.0821949166917198 -1.1945337939360228 0.9100523127698137
C 0.9467403503713245 -0.37665486145863364 0.8502775503111484
C 1.9763355480632103 0.39889695380030216 0.6556023913306375
C 3.0753039957721557 -0.16618556738173332 -0.08190945259022892
C 4.133292563487012 0.6118594324364042 -0.28915141463595734
H 0.07416973467282754 -1.8892879372348181 -1.8761571363760734
H -1.647379505107602 -2.5296916231551574 -1.6652446645489378
H -3.9458700760613477 -0.16228358453607283 0.7021874501327923
H -3.830611271230875 2.343502439930601 0.11557394254588532
H -2.0483687704395814 2.1331469882404845 0.5086219310273414
H -2.6125712948317776 1.8016409255389312 -1.1407125934990703
H -0.07110468708118588 -1.8079904017354334 1.7895658328910566
H 1.878364981929236 1.3627380840229528 1.0670828306212197
H 3.0921717790271908 -1.1740825579631424 -0.4731478619524321
H 4.974829001182108 0.2197203463886057 -0.8384676161970102
H 4.197209036817965 1.628715383158472 0.06714822177748613
