17

C -2.286164358486067 -0.531308652839437 0.5865660602446057
C -1.4951533589924693 -0.5372179817582161 -0.7171676563464251
C -0.08868813998265589 -0.031105364139203034 -0.42822553270370484
C -0.1363989082609639 1.3741738186366395 0.1272655472454724
C 0.5965165071703374 -0.8713045068900138 0.5737761417508537
C 1.9122915671276985 -0.8210709472022386 0.5775702450230101
C 3.187552231359908 -0.6524002302983007 0.36506243596870064
H -2.57284105241679 0.5487205965958211 0.7502498831890959
H -3.246326488654975 -1.0474872996392595 0.360618047361073
H -1.4528269929216837 -1.5304786600928626 -1.1818936141335745
H -1.9973787962836536 0.1415121868827899 -1.4214742308926203
H 0.4713921108162398 0.02567789832830192 -1.388859103432235
H -0.717577257016986 1.4013113438711358 1.0748778147188351
H -0.5459607876777619 2.1011600758111304 -0.6127119314121869
H 0.9188256159285101 1.6593814160546425 0.36734506421401925
H 3.7669008459404245 0.17842695407570855 0.7158316599181216
H 3.685837262350899 -1.4079906473966333 -0.20929264230439257
