38

C -2.77577125002629 2.2363325973230306 -1.0125307119098748
C -3.7857403686656323 1.1698491297637839 -0.7018245378178021
C -3.4162155478308085 0.41141501949998965 0.5617832926070119
C -2.0968116573020255 -0.24949068292958554 0.43162987109726414
C -0.9776273309039405 0.3977380021929157 0.6068777423772225
C 0.16109037304079407 0.9790942233834601 0.3635667628645741
C 1.2782971864402408 1.618735359836341 0.15709384191290485
C 2.2678188322558186 1.0529931980196219 -0.7492861133840902
C 3.3326135860124904 0.43871141605564656 -0.2682866597449143
C 4.319051898297382 -0.12523429149949653 -1.1801501109663972
C 5.368621522367102 -0.7308231575974184 -0.684714430553434
C 5.545288261490105 -0.8379675206440704 0.7736483868736651
C 6.643944669867643 0.030328921909553778 1.263902324261015
C 7.811562928756483 0.06649171289213682 0.6498063561847719
C -4.5138959227879765 -0.5598891766694588 0.9081806852198837
C -4.769178600544901 -1.569139467930108 -0.15949057178447032
C -5.890663449586857 -2.476719826532279 0.3186907116589718
H -2.8010121328921542 3.096005039256736 -0.34381041660636324
H -2.726225078249252 2.510265316676345 -2.065701971379502
H -4.803450244108539 1.5996224632833957 -0.6085138154139718
H -3.824403063289226 0.49084497911406383 -1.583872216831563
H -3.3345201993453086 1.155659312519828 1.3797981422706282
H 1.51451039880819 2.5642682424553027 0.6312105575992597
H 2.1544726209782987 1.1221921809974869 -1.808844784744511
H 3.444662002634625 0.37019191675844676 0.8114820739856817
H 4.157788941839999 -0.028402335364521084 -2.253755921934271
H 6.105233290947411 -1.1520467752932708 -1.3395126521263585
H 5.692403637313598 -1.8691389116370434 1.130056918701
H 6.497847784755272 0.6573765884919868 2.1493030607148063
H 8.616038421335412 0.6933396860972573 0.997324862148118
H 7.964963940312505 -0.5567868299676542 -0.23488656517694056
H -5.460839320805885 -0.022051531781501817 1.1127983118557518
H -4.258901270596971 -1.1100106032960817 1.8395458011017374
H -5.040486681009855 -1.1268318279031897 -1.130685733474128
H -3.862951632469512 -2.2222878638126056 -0.22943339202822766
H -6.796792460785222 -1.848539058578883 0.5543738633244355
H -5.595199058144347 -2.9423996504340137 1.2886875888946032
H -6.145525028103614 -3.2336957946564535 -0.4506244253455212
