12

C 0.3587268012516984 1.4518067751472075 0.5404551460478161
C 0.05218161012009069 0.08971192465758185 -0.08899308305656077
C -1.4084846147064134 -0.19179027962660822 -0.21160646744745984
C 1.0932403119797682 -0.567165516808624 -0.7515384607689625
C 0.8306335289985587 -1.0678301360979519 0.4844111258236441
H 0.47611424163249355 2.2009319336622077 -0.285705796244017
H 1.2903716914700558 1.366651749706398 1.1506758122383929
H -1.8776269158091508 0.10135247812722173 0.7726280470781897
H -1.9341897738486713 0.3784328266118612 -0.977638497228386
H -1.6595921350294298 -1.259943831032115 -0.34740702552669167
H 1.7752428546771981 -0.7481837910927087 -1.585462638933956
H 1.0033823992637827 -1.7539741332544667 1.3001818380179944
