25

C -1.7549354321946096 -2.58883022670843 -0.9600303076498552
C -0.9247287027908083 -1.4120882051441532 -0.6908385862789571
C 0.4208996427136217 -1.3245934934493717 -0.8392452878458696
C 0.8207024604805572 -0.030965835927630237 -0.4761589668738976
C 2.0733152461492357 0.31291291092948315 -0.5259232386857985
C 3.2762574369589346 0.7314834433156596 -0.17354316533563488
C 3.844494643734114 0.5167637259122109 1.1532518218072194
C -0.3301409267078315 0.7192559332328057 -0.08410221804303113
C -0.3594429523842922 2.111432781971787 0.36731119161026143
C -1.3821566928710014 -0.11498194464536454 -0.2140888335610292
C -2.715324589897039 0.3375158085295977 0.10596805336519727
C -3.7605778570889106 -0.43056196802266106 -0.003601179828979984
H -1.9734757612248215 -3.1999230093666453 -0.0672392602412522
H -1.4265256756207672 -3.1643583037288687 -1.834469038427674
H 0.95656137250034 -2.213134244080233 -1.1949280151318828
H 3.732328452188353 1.2169183464195765 -0.9556171046255838
H 4.887540208083302 0.1074031166006188 1.0531488335658006
H 3.2993006039484336 -0.28498090175261365 1.7335623823226822
H 3.8099225957616425 1.4101053865098834 1.8072978920387275
H 0.5968482254759925 2.428160636929766 0.8301050236659487
H -1.1869523678902523 2.233363086462582 1.115426222233174
H -0.5699360331149478 2.775920992786304 -0.5130026361303643
H -2.903119883076505 1.3528139449072725 0.45645792815258573
H -3.654135338915009 -1.4434148823076602 -0.3427461177204984
H -4.776718674217076 -0.04621709937424129 0.2530046076183612
