18

C 3.302578026169492 -0.08057468394728633 -0.45114806324042367
C 2.3344153375599275 0.7483822853924805 0.26081308353733784
C 1.2019680970246898 0.1469114656201771 0.5856640026364341
C 0.07656503082278328 -0.4814599300412302 0.7524456396230059
C -0.9008322969950795 -0.40892656802082417 -0.3073146401454819
C -1.529824244601626 -1.7642217879210809 -0.5371962517043442
C -1.9318018390824203 0.6443854434393613 -0.14123183412506268
C -1.628400220609186 1.9125534116898737 -0.08194279142984377
H 3.602218096257396 -0.9533272760789075 0.12357477737168171
H 4.137661053615828 0.5449770407912826 -0.8116771082671758
H 2.3780950672349648 1.7529381180840293 0.5640576888605782
H 0.015150893278729328 -0.99324364767319 1.6878763575126066
H -1.1306594748934784 -2.5064556428174356 0.20892588087689082
H -2.6104654098782913 -1.684783669510078 -0.4040775942572471
H -1.3467289819623993 -2.1152953455112664 -1.585389666621073
H -2.9693563738140916 0.3272868354601894 -0.06846569142849997
H -2.3981650028513877 2.6580619470243545 0.03925616900323943
H -0.602417757275932 2.2527920040196077 -0.15204421222623338
