16

C -2.3671744819346165 -0.8411587865114135 -0.47493706246417433
C -1.8804772414542832 0.4064512947445824 -1.0581730585250808
C -0.7000394234986973 0.9352746420880942 -0.9193500633355053
C 0.41963242653105864 0.4149521473887783 -0.15195141298027545
C 0.41865242774620026 -0.6954251340902238 0.5384692270157085
C 1.7317637053084083 -0.8730107073207399 1.1692816257137841
C 2.506112431775029 0.12894417981082765 0.8527588457921008
C 1.7517680685502601 1.039179108828534 -0.012444286878434562
H -3.2102853579022486 -0.7442743374249867 0.20683979926935253
H -2.3775925915132587 -1.7050703345970615 -1.1392448537706714
H -2.624171264234569 0.9395240031316895 -1.6844813194590933
H -0.5205360491475893 1.8976269493430324 -1.4468669699710799
H -0.401318019598587 -1.4227189747360387 0.6660459218317333
H 1.9832889280772246 -1.7285605913705504 1.8012511110571778
H 3.535649183138934 0.21313112817643928 1.208307060990029
H 1.7347272581567592 2.0351354125392427 0.44449543571445305
