44

C -6.403378318418662 -1.849012803820193 -1.3430180324065781
C -5.130799799094933 -2.377739997581411 -1.80212548416189
C -3.9792769960245327 -1.9695427737843736 -1.3938107923336511
C -3.769221609950429 -0.9181519648258003 -0.41171115410136644
C -4.639287512005328 -0.17382837348423086 0.2584113831613014
C -4.007905964208995 0.750275795612065 1.1475203478605875
C -4.3197387008375285 2.1454620708796828 1.2428793780856375
C -3.3955347447018434 2.9820367082217523 1.7848685831372124
C -2.053668981292551 2.4565630514864245 2.2817376949488737
C -1.653903366218288 1.4178975513839922 1.3430912033267925
C -2.5829215610589715 0.6345275632242762 0.8284309897082641
C -2.4043453534152546 -0.44748283493214047 -0.07998685069505156
C -1.1565474012894723 -0.7370200491321357 -0.46990138538344484
C -0.07495515499182938 -0.03448309308908939 0.1204174366199858
C 1.2872219790792159 -0.023358825081147023 -0.25793604532498765
C 1.9737173625960291 -1.0494677264218062 -1.0204587848327566
C 3.1953202263690197 -1.1310262889111928 -1.4108167707584534
C 4.250195819629895 -0.25177541494218453 -1.2217079622053968
C 4.688494589964186 0.8950511596708138 -2.0343327545634473
C 5.0046927082196655 -0.46392327899246827 -0.1708166215398776
C 5.807302310601306 -0.7418487316415153 0.8252844832407921
C 6.883329158951784 -1.6240348960743212 0.5146957072604803
C 7.84330718412795 -2.0029321094054966 1.340290140061851
C 1.8589892034210307 1.1106419170778945 0.20899110308047927
C 0.8337892454580078 1.9014306954643743 0.9294393729033966
C -0.3097537642567728 1.198021017517945 0.855864473547132
H -7.204290287175017 -2.6046969401982074 -1.2310155235455373
H -6.734153951270976 -0.9625603819107758 -1.921353023395072
H -5.157148444561311 -3.1872084676867387 -2.5548752706968507
H -3.0835787171279585 -2.455757160210516 -1.820444240659558
H -5.707542967851186 -0.2674320091704888 0.13438301807648154
H -5.2602978151928115 2.6044484228249987 0.9086436760386697
H -3.630591944994393 4.025508930275125 1.856460581781405
H -1.3580070138646358 3.3144524077876403 2.1700644562805427
H -1.0370624404330433 -1.487741675199583 -1.2116935328378893
H 1.3497296125527583 -1.9348917010504898 -1.334746315743973
H 3.7543846120428155 1.4077621045177608 -2.4062381810854037
H 5.261579230014111 0.6072087462466281 -2.935649166855868
H 5.25439738781624 1.652620311425776 -1.4953054331694389
H 5.535666381099084 -0.266314247716991 1.719776612987328
H 8.589878643701574 -2.679577998536664 0.9503644095383897
H 7.918987763047127 -1.6772637802762094 2.3659281043522116
H 2.8678935132413024 1.380701624025134 0.07851721293928006
H 0.8950358782945397 2.8344634464378324 1.4293588964956738
