20

C -4.006198072204064 0.49976849915121246 -1.0004388522276975
C -3.0013309056500996 -0.5233672155949117 -0.7667684228037954
C -2.1468411938733487 -0.2757497529957638 0.20283437502154303
C -1.2801005129150855 0.0976662098770297 1.1203334451117386
C -0.16270285858352776 0.8496137531171097 0.6487030880074123
C 1.0235608751705103 0.2675781259924224 0.5537851815392102
C 1.3515500220530416 -1.1413648844834479 0.8944357285969531
C 2.5168318329437263 -1.4355314432146173 0.02998359051420975
C 3.05895638902362 -0.3126749948296489 -0.4261385313635703
C 2.30430604703881 0.8628869578356041 0.09151968248066843
H -4.856243070300551 0.3334591934370537 -0.29848324056319486
H -3.5876515208536905 1.5063447755743806 -0.9470192158639832
H -2.834487483233376 -1.4439185339077605 -1.247614307791404
H -1.538719328103554 -0.21506225236408666 2.0868161230555313
H -0.32143649259036966 1.8880844647184165 0.37899800456444127
H 1.669384889412816 -1.1430733631292427 1.9574237777308674
H 2.858461893286942 -2.4519156320125055 -0.1836391494603038
H 3.9340344087664105 -0.2477938944382803 -1.087528156242978
H 2.1343267168148565 1.6199969992626633 -0.6980149164803054
H 2.8842983637974466 1.2650529880041645 0.9528293435715548
