25

C -3.3943037390133703 -1.0359654606926891 0.8321015024012767
C -2.576986562869104 0.18888149117301128 0.6097165803148896
C -2.8423793356319225 0.8464835905973688 -0.7014344694276202
C -3.392091184418339 2.0490456680659586 -0.7922983732291463
C -1.0899347188429118 -0.058827348882153116 0.6890023047625573
C -0.6423377406416264 -1.0476025530994564 -0.32875576461961115
C 0.6591208577909681 -1.2045899204681114 -0.4696271706606885
C 1.6470492393463403 -0.4757921920837098 0.3027245293413955
C 2.9245298592957725 -0.655695796287527 0.13768761376225844
C 3.9018305936452338 0.08626438226224076 0.9235065565169904
C 5.187538886352839 -0.08873749793104861 0.7636935211989472
H -2.8208371217340735 -1.9072255294748082 1.2014525382425192
H -4.208679208311835 -0.8542754573621456 1.5898312983422638
H -2.813371190329916 0.9372588617821149 1.4032935406397788
H -2.5617300446559734 0.2895340158912596 -1.5930055272407855
H -3.6604650515222135 2.578660054831159 0.1091961893158397
H -3.5631264468187713 2.4797099486798024 -1.7505540790401108
H -0.8439564510487924 -0.41898515378256584 1.6983210044048798
H -0.5533098159992144 0.8854191815771195 0.4620044776343936
H 1.0005790292550378 -1.916525891826365 -1.2021100348769083
H 1.2945962669413784 0.2363591653709715 1.0352334879942215
H 3.296163848961534 -1.3762247820640479 -0.6031944423676482
H 3.5550113698426706 0.8019894981058039 1.6598161501295672
H 5.910818501776949 0.455107982819457 1.3398007215735452
H 5.586270158629279 -0.79426625720138 0.03883039039250555
