21

C -3.590529393522111 -1.0485873953386153 -0.7583071305529849
C -2.1157813994812944 -0.9266146971221286 -0.8398486982435839
C -1.5114517133755507 -0.12311668740556075 0.0053391261000798
C -2.1391790556313977 0.6826524878422926 1.0401181292274344
C -1.1551135573787863 1.3216657045279396 1.6358912014097713
C 0.13684745695828918 0.9579620004952263 1.015773670088334
C -0.04052664870021423 0.09335017063681578 0.03454790962949227
C 0.9167588113067509 -0.5457298579043635 -0.8558717009557981
C 2.209364633630294 -0.3658545731307812 -0.8422702490021187
C 2.9194593724083586 0.5030609381289266 0.06313357613425331
C 4.223481530328457 0.6342149876355614 0.018196252290301196
H -3.890417133085432 -2.0631322726825916 -1.0855145040273266
H -3.8884658356449333 -0.9217628275529115 0.31393877288482663
H -1.5756703297374077 -1.4943283442113893 -1.5837501029973475
H -3.194978033200622 0.7424334846101028 1.2700370228108349
H -1.297931365356986 2.012566504182435 2.4631508232366057
H 1.092212675609529 1.3504883204280962 1.3284940096200377
H 0.5158956088711559 -1.2372970547931401 -1.6014186865760727
H 2.8133678196693785 -0.9163915314808541 -1.5758284514285732
H 4.792461019308766 1.270942098029777 0.6742897948797938
H 4.7801955370237215 0.07347854510520076 -0.7201007645279557
