29

C 3.219984673495532 0.5251022407557132 1.6661132470323157
C 1.9306238129752789 0.3223955695467534 0.9639769906916571
C 2.0074286582361767 -0.16563078538583365 -0.4281757965787942
C 0.718235073963025 -0.3600334000422628 -1.092283833569234
C -0.41987581240662647 -0.11465205308803379 -0.4813404242250942
C -1.7110131847827168 -0.2974704995386021 -1.1128510365347122
C -2.838033886677422 -0.04957182888994056 -0.4930316026103108
C -2.748460079314288 0.43201515661115086 0.8988048317914085
C -4.08788554026934 -0.2524056073825103 -1.1796271446031499
C -5.247014099324692 -0.0273772518698803 -0.6294490283865959
C 3.091272021469682 -0.4323425100920149 -1.100606010703456
C 4.434411007105314 -0.2733440760311536 -0.5308813199769623
H 3.200070300828754 1.4863257750841203 2.1913782889896
H 3.3538381000047996 -0.2764763357633349 2.426269616259125
H 1.2715238025637068 -0.429587514368308 1.4953076822075204
H 1.3094912236293128 1.253065419695703 0.9299332163090656
H 0.7040312441653941 -0.713657772144562 -2.1086905682806294
H -0.4051975167773854 0.24679888885976686 0.5604195655690953
H -1.732283039914408 -0.6476512064522558 -2.121004854463124
H -2.127405607696045 -0.2397493882528294 1.5292222624432856
H -2.1832059174037983 1.3879141491938427 0.8548891074406307
H -3.690462667944144 0.5929722462522663 1.417731057090704
H -4.100495342545061 -0.618559798385326 -2.2326330799283145
H -5.323441707569865 0.3232553450467424 0.37144259465564383
H -6.1487994225298435 -0.1949699826436933 -1.185685274518475
H 3.053991128681499 -0.7942271625358778 -2.141514576268306
H 4.594020893090679 0.8154723422987916 -0.2958106918801984
H 4.64662312282191 -0.8976828826177897 0.3496397378249796
H 5.228028762126222 -0.5999270780653664 -1.2799216632575008
