26

C 3.7051679542143945 0.7150049528661505 0.21423559128188668
C 2.789641381599571 1.293016872461487 -0.8296986485138946
C 1.4206625999722637 0.745803622681281 -0.6523883468434154
C 1.320206505375846 -0.5516803578694254 -0.3231998202310635
C 0.01418710069229512 -1.1650411138349097 -0.13107708547434094
C -0.0583280125955328 -2.598771858396074 0.23138640677652847
C -1.1015318526176927 -0.4687407651659632 -0.2738690883839991
C -2.390986601442207 -1.0948877680404352 -0.07898187072328164
C -3.5311485528631237 -0.44554626814784926 -0.20927843538865845
C -1.0224336262379132 0.9238385384757216 -0.6265335480464582
C -1.1828747287033234 1.7803603742911183 0.3425607050010527
C -1.3557402760677384 2.573574593581484 1.3700576586140432
H 4.450165395672805 0.015735620227662707 -0.19854783579790855
H 3.091819087874728 0.28594335538290644 1.0175248658734526
H 2.801413436720104 2.404656565965446 -0.7072416673741083
H 3.1465121852466327 1.0947200773350148 -1.8695688798733852
H 2.1951489668852435 -1.167510583580092 -0.19373611632254745
H -0.7796588857283784 -3.1629277954281365 -0.39633576262546766
H -0.2549593500734558 -2.6639800109599183 1.306424143322886
H 0.9289085660751669 -3.1046528743946995 0.06357880641256237
H -2.446420737570722 -2.1431277022363475 0.18639300164546344
H -3.574372589984688 0.6126778620490527 -0.4742326184531214
H -4.48992982194412 -0.919896988552993 -0.06213731613005308
H -0.8499211132028696 1.354961313320851 -1.5753329727585026
H -2.3583046691136036 2.85443636890307 1.5540830974943998
H -0.46722236218297003 2.832033969065376 1.8867689778365793
