40

C 7.009382747811793 0.19239602995275915 1.8391568241170126
C 6.315367236020952 -0.5261780007789426 0.7878524737591313
C 5.231663387457969 0.05375781472340227 0.31094557389308414
C 4.223293964894304 0.7184804390538587 -0.10587659629775525
C 4.237687472853825 1.6730919346387705 -1.1551999511610263
C 2.9768660133772458 2.1581490531136356 -1.2763507507584744
C 2.0802395819279726 1.5732730806878834 -0.3274878798651709
C 0.800294442219059 1.0501387587380764 -0.6705622307640178
C 0.1330383863270112 0.3375298297017273 0.24302994878015693
C -1.159791072938863 -0.2342340520468619 0.003924311763189521
C -1.8769803228101456 -0.9408961409933757 0.8394172911512554
C -3.152489101649265 -1.3448087523830814 0.20510004079217653
C -4.28447868397739 -1.3411401531314042 1.1323494282159559
C -4.66995809920712 -0.1724793246130445 1.5762509256344521
C -4.988512191878137 1.0421188837539164 1.9699073161750078
C -3.3031168310501173 -0.2868536344834587 -0.87350842164738
C -4.201149995295018 -0.7132460854536461 -1.9704943555966798
C -3.8082090280776852 -0.9041637015435533 -3.2234923692026465
C -1.884721822931249 -0.08459927347076332 -1.2992817336265103
C 0.7998978559293791 0.1513443361102473 1.5614973029513572
C 2.2498750617173453 -0.09391035322244537 1.3616864288704813
C 2.925105673341574 0.5884914998692877 0.44071685364524177
H 7.578815431727698 1.0373275006011646 1.3906391299874554
H 6.375490683524581 0.5071400257536244 2.680474104056834
H 6.518824787162164 -1.4468250787526062 0.32136946683508916
H 5.049103644638928 2.007005260625797 -1.784237937625676
H 2.69989344073917 2.9186924071021836 -2.0309754554349175
H 0.3498347376832155 1.2027194568412718 -1.627446456549344
H -1.575391112455889 -1.1890244742110774 1.844760767682501
H -3.0967926848019665 -2.3256845443051732 -0.2936504660903773
H -4.844789060255448 -2.1542142229126737 1.5018658257210071
H -4.486146498187635 1.3657862116746586 2.8441176980324165
H -5.702062207715103 1.5289690203375201 1.3586593586536535
H -3.6674053699732743 0.6584173944809154 -0.4072388287893828
H -5.244616508788675 -0.8809276052639031 -1.7404220832863921
H -4.475424819812746 -1.2108965186509784 -3.9921904570836557
H -2.7623399811028104 -0.7513153687759216 -3.5253736012024164
H -1.5293570358126714 -0.9577586018881613 -1.9174956238483736
H 0.3859227952486181 -0.7239353362934686 2.0663610311288503
H 2.773135084026346 -0.8089701678701269 1.9412030967464133
