19

C -3.962964616688236 -0.47800639452466515 -0.5996868940985143
C -3.63574486410256 0.7546119516638778 0.14980259390324493
C -2.380085705809571 1.0197082584698454 0.4187986055748465
C -1.2825341432462383 0.15846806903851915 0.015739267697596326
C -0.03708567158600798 0.4715166055226584 0.3117981319465559
C 1.0673910567900573 -0.3860717859143297 -0.08850282996766991
C 2.3221500795342083 -0.093591691417022 0.19639072395026083
C 3.439544019035417 -0.9295746951320578 -0.1901170808544294
C 4.68271821381524 -0.6067326957460083 0.1114470330793111
H -3.4543183886585056 -1.3542989856976355 -0.1585991706164273
H -5.052824544677999 -0.6376905506191828 -0.7029674316343475
H -4.415997872235592 1.4189721472803956 0.4667675385359339
H -2.1428696028486636 1.9166333696094684 0.9640876834462406
H -1.5348718763614329 -0.7384467975783245 -0.5309223919137717
H 0.2019418233911385 1.370325568622555 0.8583558867384605
H 2.5186459855389733 0.8205173658304161 0.7480006195887888
H 3.2738858484738094 -1.8414963068280374 -0.7376537574467334
H 4.854957647758895 0.325829216681945 0.6716273035181559
H 5.538062611877328 -1.1906726492642101 -0.1517055199213115
