22

C 4.2014725955301 1.4780752733533598 0.8228659719897224
C 3.3859335440496268 0.6834445064616519 -0.10886730727309565
C 2.5586578616936775 -0.2795099050218079 0.27735480525850215
C 1.7936111134328767 -1.0148448502591128 -0.6823611389216888
C 0.600582326661643 -1.4099820654152906 -0.33177042984038385
C -0.6155597013286078 -1.6716610506947414 0.12565577086017243
C -1.6066432616392086 -0.6429085585040758 -0.12311767396644256
C -2.9783513060362337 -0.9667777057344794 0.2311678528596761
C -3.9001183080477912 -0.03043720500978114 0.20712769791954205
C -3.571602968288101 1.3697151805768757 -0.17814315700462857
H 4.015251291411051 1.2347556086431688 1.8737390814080506
H 5.258241123125968 1.5166907308888955 0.5318041034682653
H 3.4856566847093435 0.9193970464829899 -1.1728999719311728
H 2.4953960724559794 -0.4741831736212891 1.3341226202728707
H 2.0581403179563544 -1.2917925693400765 -1.6606414841915829
H -0.6808206576014817 -2.6037824371152407 0.6108247732483162
H -1.5527621608521271 -0.36486424153253916 -1.203239988980189
H -1.3098963261999415 0.2595671608190655 0.4907979921657819
H -3.2587683064698325 -1.958902750279177 0.5139109085016169
H -2.689294267556395 1.759257156212351 0.38267233258127165
H -3.280162423055393 1.4357905673758213 -1.2560111852416618
H -4.408963243951521 2.0529532817135263 0.05440965716297594
