48

C -8.840284614358378 0.14932188523819023 -2.7453756232013804
C -8.547470963793009 0.45714426479415815 -1.3517082337051893
C -7.431785805375151 -0.05262753250761921 -0.8657581905679492
C -6.2493988613746465 -0.4860493083427189 -0.5298376760310972
C -5.11032865401507 0.3954696721764951 -0.7907559994149368
C -3.9958374638805125 0.14525717380108802 0.18272826141468482
C -2.776866746759119 -0.23394491820846722 -0.11311050680503519
C -2.1018096502397046 -0.5293442426950318 -1.3779635314679515
C -0.8156448614461165 -0.897746841053458 -1.281730285566709
C -0.1288288868054048 -1.0019837120559214 -0.038003563410826925
C 1.2781391099570862 -1.4130899951146998 -0.03745342653279485
C 2.199979947364028 -0.5583816415155785 0.20584159836309168
C 3.136207896223433 0.24085203792491797 0.5682759760176451
C 4.124002196057194 1.0775901654056244 0.7591241707239981
C 4.859374342416416 1.6894819202465263 -0.3754710476500364
C 6.222450283512829 1.1212418779417563 -0.38819512791982413
C 6.682600169934586 0.45342663660634375 -1.4221628088194425
C 8.05280922762659 -0.11029935360409915 -1.4187541514285749
C 8.771394229612364 0.18639670208916723 -0.15658300723076213
C 8.571138670120575 -0.5278944181303016 0.9344507783389027
C -0.7461380826332374 -0.7313479418120835 1.1252547398270165
C -2.0830962508099753 -0.33805427038867963 1.1585905202594737
C -2.9508239782658268 -0.005142592891282008 2.180849240069581
C -2.732994588682558 0.045944092368521844 3.6594807541408367
C -4.148675803022549 0.30328180511856495 1.6438859737814773
H -8.489059981671888 -0.877806454772517 -2.989097115791168
H -8.270217173818356 0.8436754320694079 -3.3955685377256994
H -9.081560848839139 1.0301858457990976 -0.6456553177855668
H -6.250380347766416 -1.4440749096641867 -0.10069243629883715
H -5.388245849726303 1.4667784393165682 -0.7776105222096567
H -4.744589096341712 0.1839589804623479 -1.8166026897913914
H -2.6054645143839705 -0.4561241755472064 -2.331552826481697
H -0.35511721774867444 -1.1075480597794498 -2.251399759409433
H 1.5130816695785787 -2.4420170413440707 -0.24489703891915546
H 4.38333467475622 1.305527726586616 1.765293219710083
H 4.880134031973045 2.801106929149078 -0.25880860179997045
H 4.348651602179908 1.422946136077415 -1.3189386569778698
H 6.8497214899148675 1.267507373855843 0.48804397715369324
H 6.059965253436135 0.3134563957208578 -2.2806356314477867
H 8.635883002018417 0.2804774760254198 -2.278565855257647
H 9.476377836737353 1.000737354958586 -0.11353784214182709
H 9.077417066495457 -0.3387055245412634 1.869059722803135
H 7.861523849713774 -1.3582773468582388 0.9155655472364501
H -0.1271183783684938 -0.8432507232425254 2.014777019492294
H -2.8212178859749386 -0.998470150087991 4.022100587524572
H -3.449482445271366 0.734455488320438 4.1471781877474605
H -1.6955932596417158 0.375590539195952 3.891957097559593
H -5.046154338621685 0.6059236231197656 2.163968639626454
