22

C -0.9549676268940678 1.1840707053624202 0.02710110588584456
C -1.048571451602696 -0.32916927792301054 0.014354523862750317
C 0.0401485743830117 -1.015621956929732 0.6234142510709336
C 1.1909138308458787 -0.6132322497893106 0.17168367577729338
C 2.3915160365724475 -0.45660789080805664 -0.2729467201003329
C 3.1030838190475807 0.5669923020030551 0.36635062126216256
C 4.358809384613978 0.8764474742771238 0.04303641243566079
C -2.3501552212933903 -0.7306031010559971 0.7168326927503869
C -3.5363045787164205 -0.13326672308269705 -0.012814597329826332
H -0.3157688280522471 1.451209733062807 0.8900044687969009
H -0.4474165400611251 1.5626219151738523 -0.9042728709384739
H -1.17146682927789 -0.5940815311107326 -1.0785728607371234
H -0.10515151218931623 -1.7555693311827032 1.3516171572649214
H 2.8425589759258956 -1.0200173973460875 -1.0449477699802112
H 2.6476243722188113 1.1617180449682478 1.168582818100469
H 4.881173670196024 1.6691344006934967 0.5523971906747016
H 4.886619660420865 0.3474458164419185 -0.7319696838428473
H -2.4503035566236484 -1.8318937178285297 0.694076284115739
H -2.359979444935201 -0.37298104537039933 1.7638602504330965
H -4.212319653771702 0.36548002899731624 0.7133861112423349
H -4.157838024695197 -0.9358164653574528 -0.4946355977675448
H -3.2322050561119235 0.6037402668045049 -0.7716232816094213
