25

C 1.3271142766095987 1.3564477063383176 1.8699098426657714
C 1.0255865581620411 0.5963062392739599 0.6380764408467043
C 1.844632596510793 -0.508232277437155 0.2500662338121369
C 3.116222779106699 -0.26080913977229353 0.044886246302717266
C 4.361505694806568 0.08499050863417616 -0.14250082282291385
C -0.005651967892319914 0.9455820834563633 -0.10039671695964501
C -0.34063780460216886 0.20678958321039423 -1.3443772208085365
C -1.7377262240514095 -0.3756377012668934 -1.225754857092809
C -2.686736648055511 0.7295930532918589 -1.0262954034402445
C -3.1977489292982573 0.6062875667263787 0.1788448942514218
C -2.6425700181290295 -0.5574102964616588 0.8523066538724076
C -1.788052579573109 -1.1356071874762763 0.035576777803179596
H 0.6925522328865876 1.038416876374563 2.7353035941654316
H 2.3720455630936956 1.2880674136082761 2.185427575577019
H 1.5794633228301826 -1.522040745083666 0.09807937348058965
H 4.979794942414456 0.014799684092672209 0.7339945742505978
H 4.6100657067358295 0.3901329943834838 -1.1219926758736156
H -0.6111728680738359 1.7705944761207002 0.19631985011245284
H 0.40972577954342687 -0.5517709594454253 -1.5752211199658632
H -0.3218093289784219 0.9494985409003309 -2.175499495958358
H -1.9858239459440605 -1.0022082190376131 -2.1098677568320525
H -2.9298257922485673 1.5177171955889281 -1.7468337262638591
H -3.940631708926649 1.3129055565055787 0.5772482866538597
H -2.9057740366161493 -0.8843862161704951 1.8755878335171854
H -1.2245476003103526 -2.040535648551398 0.2971116187064513
