19

C 1.878309608582789 0.6992724867030056 1.8193875541591233
C 1.3242895061697242 0.7822890318823608 0.39171734520734286
C 2.2604785268757643 -0.04574886257000046 -0.46534346236649227
C 0.01033581646152143 0.1457326293936037 0.3967797060810094
C -0.6677175947020011 -0.27601838905279 -0.6432433371517432
C -1.9893746562625891 -0.8996323188905562 -0.4517192650262867
C -2.7801696739440316 0.03958668491526076 0.4696467938628853
H 2.8994337425193417 1.1224735721500059 1.7823231045630668
H 1.911527473464475 -0.4038056591380001 2.0559270369818234
H 1.3326077254592383 1.8259913386986926 0.03061591313005107
H 3.2263865993528396 0.490017630923931 -0.6348764281383955
H 2.452550192860595 -0.9871731722090021 0.09065326920657872
H 1.7623099382194898 -0.3146142689655482 -1.4015093298964805
H -0.2600535410234625 -0.1660965914080633 -1.6237078833218848
H -2.583400887534385 -0.9770046737755838 -1.3814034615209723
H -1.9425318310433042 -1.868354703278869 0.10683330185603873
H -2.218494183968679 0.2512709917169371 1.4002042492689966
H -2.8572393631735262 0.9991096897395036 -0.0885264313966656
H -3.7592473983136903 -0.41729541683489346 0.68959211191006
