48

C -4.53844253550608 2.409807076937616 3.691676792707117
C -4.3001432004490825 0.9544036450872838 3.8087905914301348
C -3.796712728121257 0.26998508373556696 2.8136981357954327
C -3.4544145427938773 0.9477449641991806 1.5429837064666287
C -4.650788561697362 1.1467133467611137 0.6509119117446484
C -4.27400047185595 0.48608620288085547 -0.6201254042578683
C -4.895731992562633 0.2927820439038905 -1.853861072180433
C -4.241245518176232 -0.3947058169609981 -2.8683968885442113
C -2.9714995107650446 -0.8885080596168154 -2.655900476063427
C -2.3377741771400715 -0.7084343937875984 -1.4424195875276975
C -1.0820059769133958 -1.1647308973908561 -1.1490825061155103
C -0.47432462748194604 -0.9615933256606843 0.09360934626336721
C -1.1888790664416191 -0.2752517584170239 1.034481585860301
C -2.4702176509335403 0.1961445302895002 0.7502842507614671
C -3.023362397442139 -0.02720774504851139 -0.48069614795496474
C 0.8022036580532173 -1.5850737637423888 -0.02269209595449341
C 1.6786671743677757 -1.6168364852526618 0.9192403751592992
C 2.6262473024998565 -1.4915846343759203 1.8090651413737773
C 3.4812945551140007 -0.3799047975890836 1.7417991183114512
C 3.9468023790584987 0.5460255268683337 2.7694473650961076
C 3.9764347799415742 -0.07923150162474503 0.5681802294263204
C 4.440171889154795 0.13398637682194 -0.6297433582495684
C 3.596816545403394 1.0257496347526949 -1.421417728119492
C 5.642497405477691 -0.5106891990644544 -0.9543905266686742
C 6.197461333892991 -0.3547608913058935 -2.15805635037959
C 0.9863655409131581 -2.162892571517509 -1.3059226888891364
C -0.135694377005955 -1.9179656170942494 -1.9906759152799636
H -3.5782224096796305 2.9353704349188368 3.5313683609681426
H -5.305658932027782 2.668751551954557 2.939377708550545
H -4.567087635814617 0.49243102520213955 4.765795305503044
H -2.9994960379631608 1.9611504668817583 1.7460844157195556
H -4.846572936198697 2.2075399760174 0.4470070050653376
H -5.896499951177388 0.6858797174031691 -2.0113421416736905
H -4.770573458688861 -0.5137467904272579 -3.8007238044308513
H -2.4682614482345633 -1.4181407791938145 -3.4388056360712205
H -0.7394321487133034 -0.1092520499134942 1.9943233872479114
H 2.600979285701801 -2.318948324280904 2.503241844531949
H 3.6999808409047543 0.1635614733064532 3.7907101378615797
H 3.5228619214881847 1.5670679857084542 2.7018861706597397
H 5.075256436142901 0.5565313998440623 2.7357909841452206
H 2.697568179420093 0.5288421577018988 -1.8360884251369518
H 4.173535017622014 1.4117247094491325 -2.288549607910965
H 3.3483904810333476 1.9185658120867204 -0.8073365310077044
H 6.17537078402583 -1.1491268880496404 -0.2783693138817464
H 5.73813554271064 0.27596034955528637 -2.9274048899567737
H 7.120866726761823 -0.8277037232430198 -2.458993620992952
H 1.8214909755076032 -2.7102500003548182 -1.7439337145125071
H -0.3423564614061195 -2.2162654783538183 -3.0082310430316292
