15

C -3.266627076472954 -0.1258838508492893 1.1340966298750788
C -1.806252375368836 -0.2571057631072512 0.88863848226147
C -1.2184811318294984 0.5687242575532927 0.053978077611944876
C 0.21359672000391142 0.4286692607063674 -0.1772035321094934
C 0.8808773528436358 -0.5006793171495626 0.4387593588833867
C 2.2903408773888723 -0.7160166905672762 0.2761290209267842
C 3.0573462806858025 -0.005180807891038177 -0.505858963796432
H -3.6002385667778487 0.909476163350344 1.170993229132987
H -3.8752515667252325 -0.7259563722924677 0.44169982349071846
H -1.2497935476077149 -1.0269543424131233 1.3979778742659674
H -1.7546840185078962 1.3432225883700013 -0.46419045550466187
H 0.7459091732506176 1.0882112699050188 -0.8591160113448981
H 2.764025358421647 -1.5329060429560875 0.8450423665974408
H 4.11844671491827 -0.25066833845519104 -0.558465386143731
H 2.7007858057773317 0.8030479857962493 -1.096011060958358
