15

C 2.1323796438519627 0.19321871602985796 -0.892472379961253
C 1.246209247349222 -0.15426691945246238 0.30677131001211644
C -0.14313613254509472 0.07513795721131887 -0.06093730805861491
C -0.7728106252955886 1.2832576875042163 -0.48181039282901056
C -1.1057178314906713 2.250890113843947 0.3560700414485755
C -0.9523995610455943 -0.9509342303223071 -0.007946819775385201
C -1.7010438428800616 -2.030959070631512 0.04167256058867105
H 3.091190305760507 -0.31453202303221345 -0.7414760015999464
H 1.5690943334674117 -0.19008558192241087 -1.784800122728759
H 1.5826270316771867 0.44061559884601675 1.1973778272857953
H 1.462977787384379 -1.2096177772410586 0.5389940486858587
H -0.9342589732194341 2.216902356507072 1.4217230115843476
H -1.5845080777722502 3.1537793367855236 -0.014759079338440036
H -2.1588552263220664 -2.1785055133904994 0.9774183548861293
H -1.7317480789198378 -2.584900650735486 -0.855825050200079
