35

C 7.049200099691528 -0.40481637430209894 0.7842300925158932
C 6.442416299408721 0.8872629743602587 1.0548733530263592
C 5.139385466682472 0.8945641005245445 1.2525820536711911
C 3.8265913986183167 0.7985858639582628 1.319949534726259
C 3.1125404655686912 0.9111684748548774 0.05883698606481597
C 2.6527226136543187 2.2956479866133805 -0.19065262134976535
C 1.3472723440996923 2.2777561653368767 -0.37216805395475294
C 0.8204524343207391 0.9277329645099013 -0.266268607002903
C -0.5908096676592813 0.47148563855363435 -0.4042073399684597
C -0.8641392150828611 -0.7228112401945099 -0.2833811822903334
C -1.766870580003698 -1.7686540449410066 -0.271048028033767
C -1.1449075896112118 -3.158706395493253 0.0006400626120129617
C -3.068248255097285 -1.8025758147618096 -0.45031638348625364
C -3.908131943609107 -0.640438915812797 -0.7244595810914378
C -4.946412577232845 -0.43457231621730746 0.3097885008588586
C -5.62187435714887 0.6763004446561391 0.218280896674057
C -6.265557373396836 1.8214209552359535 0.06234745080817152
C 1.8690216091635925 0.14168883609383293 -0.013681683497056289
H 6.869326262926252 -0.6787819974930964 -0.29404087740536927
H 6.642635365262917 -1.2400553586661405 1.381196515975662
H 6.877409479232144 1.8441200808243974 1.1203368951682948
H 3.4815603022931096 0.6493125685855197 2.304625856941263
H 3.305521611739721 3.180401872850551 -0.2167319309697752
H 0.719480406651495 3.1274465575038266 -0.5739704482481766
H -1.2759177215340725 1.2693178644847092 -0.606863771832247
H -0.7620233827890485 -3.5271814543792113 -0.9602862197267589
H -1.9158348280907678 -3.8227871489292706 0.43349568410400907
H -0.2922855170424887 -3.0304931482516264 0.6926641109432313
H -3.596283648410296 -2.7612012614042336 -0.3965884414792336
H -3.3018267044070075 0.2651083012985616 -0.7850361985438733
H -4.4722652696849705 -0.8278869892695359 -1.6740308544712272
H -5.212379067114483 -1.0655710746037321 1.1096674165359712
H -5.827112891883048 2.635198718077144 0.5739900479099257
H -7.12229783484911 1.7549216268517775 -0.5507194343848312
H 1.7996422653331432 -0.9429084604544317 0.12125014305464256
