23

C 6.258558429086702 2.6484927859237417 0.09615033500338716
C 5.29347257320729 2.0952634376739727 -0.8910498729201537
C 4.069219049610072 1.7710855419937066 -0.585330402316245
C 2.978497117748685 1.159136516429412 -0.232793677995942
C 1.9788770088467995 0.39132148338474165 0.008604166127411876
C 0.9353961932947139 -0.3331394533186751 0.30970173962295366
C -0.3967194868478211 0.22270218813734444 0.4662888698745633
C -1.474731593134685 -0.5136465963463748 0.2494886162593194
C -2.778908288457064 0.07536612266414675 0.4157761130848297
C -3.8756499952980263 -0.6103607694326438 0.21358123938923665
C -3.8452954773124506 -1.9915131217714606 -0.18630309261451572
C -5.006435304009963 -2.6173857156449207 -0.37136582635035653
H 6.892972547636667 1.7970778266326368 0.42794402091383676
H 5.6677798720919235 2.952878229787673 0.9850860153654248
H 5.669328306001596 1.9710951736579843 -1.9078762521278112
H 1.0282348896760998 -1.4151465026824752 0.4592922700224038
H -0.4795752941879541 1.255551152346746 0.7651293327726153
H -1.3024030242096765 -1.5264587656553215 -0.04325699179031768
H -2.8365529762704833 1.1248867509369522 0.7195251491583351
H -4.824375680398345 -0.10694252852967438 0.35625840325850083
H -2.9493501410918332 -2.575529007182738 -0.3524924943140254
H -5.041233762137944 -3.6533976822563394 -0.6715121981918993
H -5.961104963844682 -2.121337066747729 -0.23084546222906321
