37

C 4.819790459684182 -1.8826637083300692 -0.87275332584097
C 4.4945119647614185 -1.108097088095297 0.3839308537180002
C 3.031207436484677 -0.7457968387042444 0.3620168617040083
C 2.745064198479492 0.5472920852346178 0.3935089896655185
C 1.4258305300989376 1.2086282157314703 0.38354715909397846
C 0.19368751073869334 0.6613310552522471 0.3688787956471024
C -0.8905300627838936 1.6436356457009682 0.36270102783062247
C -1.0786513450884798 2.2813169324323836 -0.9957602972009268
C -0.6462101694735429 2.713657752914262 1.3569354031286889
C -0.8985786693332343 3.9916598088457795 1.0692303985075597
C -0.035172495810403145 -0.7477614931381534 0.36021583861753614
C -1.2937966573149726 -1.0303404806106597 0.41203319072236755
C -2.580169877336668 -1.3230253928446138 0.3015679373524058
C -3.0862002995620044 -1.4058376934900272 -1.044068700978973
C -4.441021624914107 -1.998214129106652 -1.0341069084432957
C -5.365664297289147 -1.5534706917737893 -0.2041794058660946
C 0.7762085415667346 -1.9458418162602105 0.30528553053545343
C 2.122419797322384 -1.9007632887437842 0.30812768568619175
H 4.30108735374241 -1.3555574670150248 -1.716218887100814
H 5.910580392380141 -1.7230538312352728 -1.0729156174267793
H 4.647520520554897 -1.7735169372429156 1.2567614046801254
H 5.117414810699823 -0.22502156716711488 0.5356806102513223
H 3.615399825969341 1.2055257800194847 0.43212027323909064
H 1.4904652149547335 2.2768520882757395 0.38909990673730643
H -1.0141852216006444 1.4808932003243154 -1.763132062072768
H -2.0711087886387025 2.779274814037305 -1.0580676226665895
H -0.2859531689970176 3.0257061987809566 -1.1727935864328713
H -0.2530518575412146 2.479656539500348 2.3501748393031647
H -0.728720913112936 4.77365842299041 1.7722717925147007
H -1.2891871417606928 4.268441835854077 0.09622256244551622
H -3.004365298335569 -1.4438964748999883 1.2481781096438385
H -2.460407002359026 -1.9155739278917634 -1.7733305237837251
H -4.694582054653108 -2.799830458553014 -1.7019263000595228
H -6.370801563615705 -1.9652535203427517 -0.16992805332088745
H -5.182028692870466 -0.739801046217422 0.50547333092154
H 0.3324536446145101 -2.9063284926310144 0.2606389236644182
H 2.646745000339042 -2.8478840316013354 0.26464042231981466
