23

C -4.448127282064778 -1.2346832979988474 0.04394350128646123
C -3.7251618253072887 -0.06339669587246993 0.7043584740931862
C -4.234728747166528 1.2376827734745512 0.3337663241814948
C -3.1448342922475225 1.572399360221597 -0.2596228510715462
C -2.5096573446662616 0.33635019114684095 0.030810009741296406
C -1.3433367484060927 -0.22735515068398235 -0.1943357396154385
C -0.1110290779125806 -0.6483818343001605 -0.20801593222535253
C 1.0994482860115429 -1.0572045430200805 0.0245010978490006
C 2.2217566261256123 -0.13404352953208584 -0.018060964290406704
C 3.443354732512648 -0.5176727931990895 -0.30408605082464824
C 4.530742635635992 0.447957321165659 -0.33303527909767633
C 5.764625190529353 0.08537616396174469 -0.6176253053268791
H -4.282524172136012 -1.2502419780411884 -1.0399878324407472
H -5.527997547457138 -1.125985294831019 0.30126338484832116
H -3.643878151383289 -0.2684807181509088 1.8026271371174367
H -5.190716626705022 1.7611652956485335 0.4909639325105345
H -2.756038907303823 2.44971619447663 -0.8082678685007875
H 1.2824141484951304 -2.093430303504027 0.2528336835220506
H 2.000811643824524 0.9098989851349988 0.20194036802611726
H 3.6599317624277634 -1.5423216797878558 -0.5199533375293723
H 4.325087613791138 1.4868773561717499 -0.116721074261339
H 6.034192524424534 -0.9449803614038652 -0.8439935334393129
H 6.555665558992439 0.8207545389296552 -0.632977859577816
