18

C -3.50984334092585 0.5000145173746205 -1.2915188612908564
C -2.338607722491695 -0.0805989292483819 -0.6311325922997829
C -2.462765231984884 -1.0509921932963495 0.2559901743963946
C -1.2629177297052856 -1.5949446289961442 0.8853527580878925
C -0.19002309369865394 -0.8410024115829137 1.0342127004961368
C 0.8533697701484235 -0.07983747880053003 0.9727268116050805
C 1.9131727800452745 0.6342740085614963 0.7198167122640604
C 2.9869415328479527 0.15828183390135978 -0.14508095964085727
C 4.033470945529817 0.8861850812859466 -0.3832778489928088
H -3.341370924018695 1.584777616666679 -1.5368814453271507
H -4.4257334739632235 0.4277079301374137 -0.6806109061046972
H -1.3591760522915277 0.3150507744976544 -0.89618679841533
H -3.45070152667846 -1.4121402602493636 0.4881565542400211
H -1.2286263277256442 -2.615880502374867 1.238852552099173
H 1.9679425113859272 1.6197595775682103 1.1880725215135082
H 2.8755667164487146 -0.8293449363976869 -0.5815757926429053
H 4.122004495125263 1.8607006492298213 0.0598203049231035
H 4.8172966719524934 0.5179893517230251 -1.025147906727135
