24

C -0.08591167816767065 -2.36754029424504 0.7829690290140535
C -0.32269345610366273 -0.8919864126966817 0.6292607233193509
C 0.6249423563900279 -0.0821596742800109 0.2472664969037426
C 1.5728654855363056 0.6431495191598179 -0.23494654172092247
C 2.631926853427453 1.2850302718884088 -0.6539227929367821
C 3.831763996980599 0.5926326580052474 -1.183017893863407
C 4.82386264843236 0.4167772066553014 -0.090208667331558
C 5.403867794640407 1.4434022791570897 0.5006455729401869
C -1.638433999775675 -0.37147453698555755 0.9153811987827412
C -2.6912597857743883 -1.1366412846016414 0.7779420006995387
C -4.028440764900729 -0.6512585602152825 1.0552049116083206
C -4.452486607799925 0.3039468734086375 0.2717449379127598
C -4.818591691654961 1.2687954159258685 -0.5561044913871963
H -0.8707649882799949 -2.8135052346598908 1.393204768308767
H -0.20928819196223097 -2.7828832390643132 -0.2574305043249205
H 4.2689469333009455 1.182972352074099 -2.013949838810545
H 3.5871673151851953 -0.41579682825672787 -1.5596507826352128
H 5.149015892879477 2.44061319191678 0.1794397053613789
H 6.114966266823588 1.2592885289519038 1.2864033144078986
H -1.7469764347314336 0.6412343135068239 1.2396809002792626
H -2.561517516066802 -2.1737370532404805 0.44408245923365663
H -4.70645324358672 -0.9592398932884999 1.798366832478681
H -4.574468320966124 2.240969071567682 -0.22335282345278074
H -5.302038863826155 0.9274113293164005 -1.431474571620531
