18

C -2.882654056880855 -0.2824535931459082 -0.023626831195611018
C -2.0430242326057013 0.9635095607994197 0.10083612551441246
C -0.8437794187765255 0.7509655189976404 0.9964339404813987
C 0.05156150842162046 -0.3105351723204315 0.5003696557191394
C 1.305488144860436 -0.025319944151317095 0.20576099790811217
C 2.2242343068389028 -1.0425078912043013 -0.28700653440425206
C 3.477494767310066 -0.7444148684197218 -0.578487358871371
H -3.9061630129586202 0.013121880144901987 -0.29556784347063647
H -2.79772943314028 -0.952253649154878 0.8309656878886521
H -2.684973745489696 1.7237752576466123 0.621643802931453
H -1.7635640727268571 1.4006270409006119 -0.8568153181219483
H -0.2783572188872925 1.6949159489955559 1.0501211712771648
H -1.169416718757161 0.46055945830490863 2.0122973454707624
H -0.2711915823337523 -1.341176277020148 0.360039824617822
H 1.6846508312044246 0.9796782789351418 0.3241375967664832
H 1.9017671048795515 -2.0631962726743707 -0.42519764025404466
H 3.84606575664373 0.27601516155555456 -0.4535455128792064
H 4.1495910723979454 -1.5013104381893223 -0.94184806308373
