20

C -2.588612063226867 -1.5222030613046307 -0.031659116537708566
C -1.104190118689624 -1.5160749031533847 -0.11920042731426624
C -0.48959346804088555 -0.20255589374516322 0.32934895638682915
C -1.0213581227359563 0.8629198285917079 -0.5493356934620832
C -1.7390682411069096 1.8698981011357987 -0.08036972730564913
C 0.9913525855802533 -0.2495435894625397 0.327953639459666
C 1.7370287066360943 0.5778867477822511 -0.3863325235054237
C 3.2163300994147295 0.5046322795785888 -0.3656491636677083
H -3.002364523549315 -1.8864144026571528 0.9129994627662013
H -3.0992814903992425 -0.6799203739195749 -0.4865437588251891
H -0.8347644985555001 -1.706600020410694 -1.1994059166756925
H -0.7196964452248772 -2.369529798427536 0.48423214008179205
H -0.8989146728285392 -0.023462598012505907 1.3639252204613432
H -1.9331480611712348 1.8990649246691838 0.979857376164343
H -2.137552660009244 2.6568058392745066 -0.6947987712778303
H 1.496307239405545 -0.9869813515345773 0.9323503854422113
H 1.24154787942013 1.3247672603059868 -0.9988965292641738
H 3.593916066253506 -0.46684897077361914 -0.753781416283516
H 3.645542666857684 1.2987507555259035 -1.0011059676464518
H 3.6465191219702304 0.6154092265374465 0.6507917589983487
