11

C -1.152845765880954 -1.2648125337245868 0.04580477778836369
C -0.40721463152230697 -0.0229842423182008 -0.14580692002407647
C -0.9065040549868194 1.3216369064974023 -0.3811237962738572
C 0.8856872792555527 -0.1699909359460251 -0.09371177394056279
C 2.204276339825241 -0.2609695190440736 -0.029162958940302866
H -2.1018541912208812 -1.2994490133670535 -0.5106170800744866
H -1.4439611383114295 -1.2937034233994968 1.13679948099164
H -0.3234319142030194 2.12458024486308 0.159274658034403
H -2.0039633334179987 1.4474926911722903 -0.1534323841866236
H 2.6514821749406527 -0.450018713066925 -0.9627021749534084
H 2.5983292355219922 -0.1317814616664324 0.9346781715789217
