23

C 5.714142164872215 0.4100217062710254 -0.30028979788757443
C 5.094757224546265 -0.9488406095905139 -0.12786558632425954
C 3.9436908150283885 -0.7950950629906475 0.8301531528811485
C 2.7661174861388313 -0.4297198348746337 0.36670782145984343
C 1.5342297743088291 -0.343310401576724 -0.045771074687692814
C 0.2863787922901648 -0.5158165984628325 -0.38390020911620654
C -0.7467902093044125 -0.06627903511040262 0.5105931250848016
C -1.7807249900343638 0.5265098458958567 -0.02578212912997936
C -2.7990909750447277 1.0209973593799373 -0.6874341872194616
C -3.8001512932810493 0.08964527850617522 -1.0961668440384549
C -4.7914352031189855 -0.21060821139347996 -0.2798636238513751
C -4.9082716374423505 0.396985001296662 1.0785709072450884
H 6.099370441632191 0.548431994634433 -1.3497353934847616
H 4.89935928068257 1.1688944809609316 -0.18734326674267643
H 5.804246710679829 -1.7182581038593137 0.2064468875491408
H 4.620536873211135 -1.2820539130660384 -1.0928068105742792
H 0.05282783678264927 -0.9914297033498929 -1.3261307117189656
H -0.7965358780984187 -0.14642625146974553 1.5563915580210286
H -2.739826038083496 2.0753624435657003 -0.8352713325194479
H -3.774757765514802 -0.3830124926037033 -2.0600856759648956
H -4.210216302647467 -0.1892749998410326 1.7361031455077958
H -5.947991962835078 0.35250009217192235 1.445558265678738
H -4.519865144768536 1.4307770155063204 1.0053067362904151
