19

C -1.4254115658017903 3.075662096581643 -0.05769238856843644
C -1.3257353596936245 1.9213290582472655 0.8032654650282484
C -0.8655360263061925 0.8176923315621034 0.23519682805160913
C -0.4038455116299373 -0.20264301784265384 -0.44767237248782193
C -1.3958295539049257 -1.0069876818946424 -1.075696655649504
C -1.8948758513446322 -2.1308888318763115 -0.6021609902654075
C -2.2623320475204496 -2.980307664038089 0.3399942770159131
C 1.0115713029894915 -0.33231111903913646 -0.4481231955467022
C 1.850067114597854 0.4533121913161871 0.15693189400915225
C 3.278101762103296 0.16632368844923143 0.04686058904775929
C 3.7173569481467266 -0.8675737212992168 -0.6506950040366345
H -0.8880516602933132 3.979452451043357 0.27636596636212074
H -2.461386478634207 3.2980211558936983 -0.4145855280238934
H -1.5469000748088237 1.7632727112951523 1.8164373573683967
H -1.692507467453096 -3.890697693736988 0.39733812177406846
H -3.0750030316822494 -2.7925532307870666 1.0192828313284756
H 1.5336398528683137 1.324558912640411 0.748195264632274
H 4.778700048750513 -1.043206917514702 -0.706071814625059
H 3.0679775996167815 -1.5524547190003137 -1.1728742047608298
