19

C -3.540841509895681 -0.05677002620480336 -0.3369502537977323
C -2.8311081121690225 0.26677848583942476 0.9173925979382411
C -1.5493928190052104 0.48051942865600017 0.9067072270505873
C -0.8020453852804409 0.4006269821759169 -0.3556738027349368
C 0.6515237098202561 0.16201052052392093 -0.1572912002357371
C 1.2060962802218602 -0.993220899888496 -0.4045804444800027
C 2.6518557556704248 -0.8843192603856727 -0.10217460425776129
C 2.7840110140380725 0.5160489945072174 0.3474504017787046
C 1.6189560078991425 1.1319489088860328 0.31732149277415556
H -3.2531793653116017 -1.0514160048303016 -0.7439139531443614
H -3.276405418223416 0.6993642746137588 -1.1210318953891416
H -3.3868051437158164 0.3221853193582108 1.8314799938421649
H -1.038202104412959 0.7154531615653857 1.8217691238914357
H -1.26905955926438 -0.3394016252152094 -1.0274453212327106
H 0.7165930517838076 -1.9170103749240075 -0.7761538128155835
H 2.93955529004493 -1.5396489242458327 0.742734448783647
H 3.240143923383509 -1.0936566612991043 -1.018382530859632
H 3.69711812633447 1.001052980032746 0.6647625970257726
H 1.441186258082107 2.1794547208345696 0.6021211626578791
