20

C -3.216699174022418 0.7913126221358777 0.30624938595721934
C -2.819575323904095 0.008699871014887473 -0.8284939536312554
C -1.733188962192364 -0.7628088068500658 -0.853592773072743
C -0.8946085526136831 -0.8031041373454917 0.3754560422337057
C 0.17815204817184316 -1.82332083707836 0.2460119569117634
C 1.3721786702873682 -1.237766985295416 0.20108217736467524
C 1.180670749881659 0.19570799557083138 0.2962692123365816
C 2.257251587419771 1.1803869415798953 0.28205039965665235
C 3.5183654085018183 0.8009850333174924 0.17713308905359232
C -0.09894939234822399 0.46495630280347483 0.3960809596444162
H -2.9289709744205843 1.8217426549289235 0.36738661739746586
H -3.796638653055102 0.3524157956884415 1.0850019670550326
H -3.4304126581549133 0.02888290428527855 -1.7443697523366373
H -1.4485065152786256 -1.34758590762306 -1.7205025904287998
H 0.007053570034865635 -2.8719738856283143 0.1968646275100765
H 2.3236937418076096 -1.780176426073886 0.10716336181417734
H 2.0302482929881456 2.254096242902482 0.358824774472568
H 4.306164617059847 1.5363797427734815 0.1675794487428413
H 3.7542694474377147 -0.24816386729071674 0.10119650794614292
H -0.5604979276006273 1.439334746184272 0.4826085413725306
