32

C -2.624544282527243 2.198113768310657 0.8845507835931206
C -2.0090276487957923 1.2512610351357718 -0.11848111092305223
C -0.7297005526100685 0.9980782792526185 -0.013160010062083831
C 0.07396457170823438 0.13019679559522404 -0.8522682892567545
C 1.4855685825102267 0.1443133285052626 -0.31409885613220734
C 2.055699497536802 -0.9592634689783373 0.09523216917509274
C 3.4021412418009227 -0.9447005303375335 0.6083726150889632
C 4.042966730786967 -2.016126274226067 1.0391906548251515
C 5.377868292537033 -1.8921707664827343 1.528985820134393
C 5.577910782707055 -1.0185016030681113 2.4855187834909716
C 5.682848441236242 -0.121533590822423 3.441879113075774
C -2.8438429835667898 0.6631303765543968 -1.1495010413712112
C -2.226499919314474 -0.17290028919572048 -2.0106442666755298
C -2.943755109105568 -0.8480896138537684 -3.1134227881722967
C -4.250810282820028 0.865634422899424 -1.362644250049026
C -5.056258361121054 1.6188426544283 -0.6703690645250285
H -2.435460943007778 3.226022441812104 0.47727068065779593
H -2.121164724003168 2.0331256646645453 1.8424635549480035
H 0.09119354378995644 0.47744979681236943 -1.9210843608905912
H -0.2460519152946677 -0.9344709737946019 -0.8765015684324412
H 2.0051284061584935 1.0726196076918826 -0.2757775072837892
H 1.520454988074237 -1.8805477627672975 0.04968002232025119
H 3.5506157145508372 -2.9623248167245646 1.0143539451018413
H 6.254138470726873 -2.4107742704955832 1.2308373155226662
H 5.539612015201685 -0.5021425353665583 4.4181607056027525
H 5.895547640909284 0.8580793295383851 3.1018420151090877
H -2.2799905087258114 -1.5334117016710231 -3.6694737417163825
H -3.365337642534542 -0.11827086208319869 -3.82275175894645
H -3.7748121544230258 -1.4349561167239462 -2.6520458530839277
H -4.716207379589657 0.320260511376481 -2.215751372471735
H -6.123369722721479 1.6774579983641074 -0.9533790452382722
H -4.808824790073798 2.215599165649895 0.17511610585545845
