14

C 2.10610359556374 -0.4801047566888156 0.12322994452230579
C 0.683750850096339 -0.8572694760222324 -0.18879947672006467
C -0.3183073434565309 -0.012417868653389166 -0.0042304470624582044
C -1.7023978666429584 -0.4177008101175273 -0.3218310174395039
C -0.08531392223220752 1.3594409129821006 0.5240314754115168
H 2.4587435388419188 0.09604794021742627 -0.7609404335252723
H 2.7319366841084536 -1.3508102069493793 0.3102021523335148
H 0.4460418178643365 -1.8431216817240441 -0.5769585002551966
H -2.301150641177208 0.4241734020976228 -0.7359817622942305
H -2.1541755884745775 -0.81447679116867 0.6265793700364531
H -1.736694172248631 -1.258781984955285 -1.0634842669890103
H 0.9953990779003766 1.6075523746385276 0.5061737561141965
H -0.42493085288627613 1.4298418812848461 1.5881314325359617
H -0.6990051772567407 2.117627065058842 -0.026122226668209347
