26

C -3.845480382607382 1.7411102091322381 -0.28517129581123585
C -2.9631576690270505 0.568174179926689 -0.11216319081400082
C -2.253302350288196 0.12200365098887661 -1.1433804159313932
C -1.3583828130777011 -1.0776681571162472 -0.9444174740332714
C -2.093487465680388 -1.988431769549945 -0.0453465221896128
C -1.5648702623443849 -2.368369411854041 1.0988543512209514
C -0.07030138803335981 -0.665385325899494 -0.2791634049503714
C 0.680413108154161 0.35779823753171364 -1.1297216019004963
C 1.966229310638603 0.7482872101680583 -0.4322802307953688
C 2.8500343028686523 -0.418421792547766 -0.22051490323960884
C 3.8221017733387015 -0.29193693360777867 0.6646954122387736
C 4.7366290577303864 0.12610397231799905 1.5042646434597764
H -4.108028046742468 1.8242951080577736 -1.349663246165893
H -4.813600262591245 1.639738994741511 0.26715240773020343
H -2.9079221892599407 0.08757708673709469 0.8565424360983762
H -1.1566349293366702 -1.5553413907350864 -1.9438900188282766
H -2.12388876251216 -3.0377538041802232 1.7423703979196465
H -0.5940723494956536 -2.0544133293521316 1.4497005311298259
H 0.5727616857829528 -1.5544244191959549 -0.12287218042973384
H -0.2786665681506895 -0.20410263365145576 0.6897417840465618
H 0.07334069960469533 1.2375669401954754 -1.3336523223686607
H 0.9567794611998471 -0.13876931645308166 -2.088078554051739
H 2.5049909204746625 1.4729999727193472 -1.067366083625129
H 1.7082606854579667 1.1755078780982995 0.5697600562027366
H 5.675163342664299 0.4371257729405449 1.0882442783733988
H 4.585091091232632 0.17095692671924156 2.5663551467144647
