21

C 2.6684805929240287 1.0944850458923958 0.2079436285686996
C 2.95780495664344 0.004762409148089104 -0.7496059713437616
C 2.087402243185619 -0.9202258974137056 -1.12513204601054
C 0.6712470020641773 -0.9522539753473586 -0.5950479102731063
C 0.5029140422977016 0.14448270913764383 0.32046800582011836
C -0.48365857490912084 0.690393796760127 0.9145833142745888
C -1.849757390216121 0.2843063169071603 0.7945348361276628
C -2.7815339854115946 0.9698709973353403 1.493578969527939
C -2.3160773005237134 -0.8411641474831273 -0.04824876965020315
H 2.1152720288514875 1.9368999147082961 -0.23358318014306187
H 3.5344125494898213 1.3854717287718776 0.8203931609781412
H 3.963076143087525 -0.008876225290642015 -1.1540595299002132
H 2.3881186644717407 -1.6696142244806043 -1.8235057383571802
H 0.6182103805322573 -1.9099914235081215 -0.018707284303506502
H -0.04896088055607556 -0.9390990738544501 -1.4319162500045626
H -0.24302712959416195 1.546924567867031 1.5725847615834667
H -2.486722740177225 1.7950511417926769 2.117862420770968
H -3.8292816822134395 0.7253718188791901 1.4558225665759437
H -3.390397484255843 -1.058025800164789 0.1891399342662214
H -2.3463265915316747 -0.5153374970961272 -1.1155156683112155
H -1.7311948441588538 -1.7634321825608659 0.032919253278360136
