20

C 2.95625250539883 0.4321219382600294 0.5309187657689152
C 2.6491824658554743 0.39577366633791694 -0.9208563244277841
C 1.5461924241825884 -0.19316561275317778 -1.335733128648184
C 0.6082471262540484 -0.818819879173553 -0.38130840965510787
C -0.5667248915060845 -1.6137643812888518 -0.9485276274351329
C -0.8368579310280989 -0.2866550513715624 -0.33241850021961267
C -1.4739686926767055 -0.2179471955584015 0.97510949272542
C -2.1729206258680476 0.8216746323505014 1.4092071360377623
C -2.9978131889672 1.8305987622495603 1.4027891516465587
H 2.134651687436211 0.974749618389844 1.0566356202838219
H 2.940577782389016 -0.5985495587690773 0.9347059003187357
H 3.364368715637517 0.8666644163594404 -1.5841667183393333
H 1.3387088804352578 -0.21037619210799105 -2.393484527051589
H 1.00940708652612 -1.2130963514232642 0.5737275632473391
H -0.8970662997651122 -2.5180457494588295 -0.39275889150492815
H -0.5687987559548205 -1.7071352302636382 -2.0532788020269797
H -1.040201088930026 0.5260608103104767 -1.0783772758041694
H -1.4482863630570912 -0.9691843524551904 1.6963336496672616
H -4.002363033475393 1.7927183839284149 1.0636701984692458
H -2.542587802886558 2.7063773264373534 1.7778127269479602
