20

C 2.8420242179493123 -0.07446951169369849 -1.0468611790277387
C 1.7502750284822768 -0.6625697247855065 -0.1535706890154206
C 1.0847428954207397 0.45988032527211203 0.5193622026961789
C -0.19503225256622675 0.6818297020364911 0.3607343209417425
C -0.8083540256899346 1.8117153680650615 1.052535247655522
C -2.09802080797702 2.081541770111936 0.9273226281261432
C -0.9504889770347866 -0.20129312905157437 -0.49377811188795667
C -1.3159216039092296 -1.4100382764002444 -0.16387327395010154
C -1.7441325020881115 -2.417871251180031 0.5536269665148127
H 3.6342120503561195 -0.8382573549019341 -1.1810239032397625
H 3.302017167759454 0.7801735110477519 -0.4830421476455538
H 1.0656398746702447 -1.2391579352289697 -0.7984931496541325
H 2.2572607859313174 -1.3432999627438782 0.5663889689843585
H 1.6657581221915045 1.106181084407802 1.1517398390336344
H -0.2128584716107028 2.455236548359614 1.6865834282284242
H -2.541958755188101 2.9179050436431124 1.4419573540677317
H -2.719746796384593 1.4608035160089994 0.30373825474934807
H -1.261022809783988 0.07134299894003035 -1.4468980331415624
H -1.1012976194755772 -3.2359665290611828 0.5253473293000085
H -2.653095521052779 -2.403686192845914 1.1103606240933899
