20

C 4.723434311373554 0.31408984806659335 -1.1285527667189943
C 4.071830716960655 0.25543098948044224 0.18397875434775796
C 2.7621487394391777 0.41871064010322245 0.21705626389146496
C 1.5032100450768544 0.37388999215874885 0.5402472926882186
C 0.22049101482874797 0.21618796734645412 0.6219243911824474
C -0.3832818719004848 -1.0447770223472213 1.0705267478067428
C -1.750327782104628 -0.8771101506206374 1.625731435947821
C -2.7849667987290636 -0.7130293878972631 0.8156996016434706
C -3.5204389262489952 -0.6447710370535464 -0.26326948307488307
C -3.6803523401053595 0.6922391181095776 -0.8741692507297056
H 5.814423463463315 0.3815401172876671 -1.0846359198144953
H 4.344106715941895 1.1397541433317746 -1.7717901449001248
H 4.664774086471859 0.08537762723522581 1.0593123521923364
H -0.4463872711371642 1.037606455427803 0.3521319959046705
H 0.2407373076273233 -1.4556335292601599 1.8943279088923344
H -0.45124730572528965 -1.815970248958552 0.2721616005533226
H -3.9801220344807464 -1.5180557016318086 -0.6836211434152015
H -4.13423189134085 0.6430340771116883 -1.8943754939153048
H -4.462219841753175 1.2189478162493204 -0.2507794537650157
H -2.751580337656824 1.2925382858606966 -0.8625072873178361
