17

C -2.030851329822437 0.8275425645298049 0.6879853033035953
C -1.8853659029702723 -0.3652360461526128 -0.2006130813547898
C -1.0514455795003042 -1.4547206178821208 0.4383120717487461
C 0.3086183492693274 -1.0366692483348492 0.7687091629666295
C 0.9277431316919352 -0.15419392342096278 -9.43278483084845e-05
C 2.2777140101648543 0.2561263389069915 0.3340039987190577
C 2.898832220244017 1.132998894009829 -0.42605062833583307
H -1.1058787777296875 1.3621724021117887 0.8951336053695628
H -2.9115343347819973 1.4374060605931072 0.4899872232277662
H -1.5403267943931642 -0.11827582072960643 -1.2086304397774095
H -2.9180835660016666 -0.8080537661250551 -0.31628417290416294
H -1.5350936330852623 -1.8852373542336407 1.3210807775123927
H -0.9731479366474752 -2.2887151517553868 -0.31008328537133734
H 0.4551580710111027 0.2688564726799904 -0.8696128061962943
H 2.769391939636011 -0.16076871024102307 1.207768597893551
H 3.8851175178724 1.433566642738515 -0.18301029250969356
H 2.4291526150425087 1.5532012633052048 -1.2899182778851632
