20

C -0.9973747056046021 1.7871976611192175 0.13427507090304616
C -0.648627067983018 0.5246796374500811 -0.5879476674542844
C 0.8047369603518644 0.2613879609618969 -0.32000562112865394
C 1.525120658753786 1.0142642718825843 0.4819917842436096
C 2.921170558551086 0.704459606353911 0.696290793088584
C 3.5791811145224175 -0.28531337001847673 0.1582085153896576
C -1.408668659937319 -0.6705091115772285 -0.15499441166246222
C -2.9094013755335237 -0.7277139079095994 -0.2582487478487931
C -2.100300123490178 -1.4500979598675006 -1.2697113347413933
H -0.6762931437656303 2.7007434753830535 -0.35215323242148305
H -0.9407110186554336 1.7425037821140514 1.217219566561536
H -0.7946390525941222 0.6916885924663436 -1.6732525546792718
H 1.2707032449506486 -0.5771608567973668 -0.8053972730385562
H 1.0806440186010813 1.877976190400134 0.9931556545806841
H 4.634582872495815 -0.3643028313729728 0.4377907708097512
H 3.2273413424215645 -1.0263308370090984 -0.5162173756386064
H -0.9602989969908602 -1.2987256523153459 0.640985964271913
H -3.4816896750436825 -1.3501801400537377 0.46026583239637714
H -2.0207251672395516 -2.5478708035457647 -1.2716494870766921
H -2.1047517838103316 -1.0066957076641918 -2.2922542465882323
