26

C 1.8099373189259944 2.361719939125524 0.6804686581752617
C 0.40676437009730104 1.8578408690547379 0.935176706266137
C 0.17266186470718606 0.6729350085719646 0.009767629885916677
C 1.1371761564568874 -0.4325857574897636 0.25023448443590673
C 2.1325889491680217 -0.5955346225905875 -0.8472757348976129
C 3.2682187677752466 -1.238434260402599 -0.5948400081533899
C 0.4513807361049205 -1.7177679055614778 0.4499325159685013
C -0.7844681214604645 -2.019340563889523 0.04783253629629649
C -1.5874263217343538 -0.9701815975750947 -0.683463810892325
C -3.037667677261336 -1.1204153195163877 -0.5014502145706294
C -3.4587754070616232 -0.09497728585243025 0.21126707817433607
C -2.337545232561716 0.7718998056513164 0.53706975091619
C -1.2443619286222503 0.2828817477579572 0.03100944846885979
H 2.3841252764580063 2.517229634314483 1.6188055030586685
H 1.8479472276170685 3.2607982390786687 0.05655252413532323
H -0.291896511319148 2.6739385996697123 0.6649153566572858
H 0.23197554624565261 1.5871348113404857 1.9861548933527267
H 0.3612278771921923 1.0335067324336704 -1.0476110247346861
H 1.9448613354904571 -0.20295987320240008 -1.8315171217766268
H 3.4817514444121094 -1.6426421948197238 0.38537395539333197
H 4.012590604233577 -1.3756861154563942 -1.3648349305431215
H 0.9582348422602487 -2.5478382519014335 0.9755996766492726
H -1.2550030905101386 -2.967541086534195 0.20935939945463364
H -3.6641925167247757 -1.911993221641705 -0.8713480693918724
H -4.501483997482151 0.10690106176013649 0.5313704092339883
H -2.438621512407179 1.7111116076749848 1.1358029093040927
