23

C -3.5882797844470966 0.6477866001634154 1.517970647228984
C -3.380828583601416 0.09722225553066613 0.14746726652849743
C -4.361933152444843 -0.5128643634350584 -0.4743487278903496
C -2.0691153771512245 0.25721190032373986 -0.47035096789839514
C -1.105002255607471 0.8648312646945141 0.1586064463112348
C 0.23207856742459002 1.019755422549211 -0.489189607931471
C 1.2518911919404652 0.7384729994884335 0.5151321160294274
C 2.144631424315283 -0.1605018696595786 0.19301390942503685
C 3.0306944891196634 -1.0141724868743776 -0.24683642894191013
C 4.1400378108512275 -0.4750268757255255 -0.9623232778429973
C 5.0654160255481 -1.2775125161213023 -1.4309092393274758
H -3.9442337419161633 1.696562374239846 1.4202590295482276
H -4.345665848849826 0.03572984289486039 2.0275345031909415
H -5.3104856557312035 -0.6053668967143317 0.023693937949926046
H -4.243112007076461 -0.9214508363724478 -1.4654030921487733
H -1.9300581660772003 -0.14758941151752492 -1.468017474807721
H -1.28282714944313 1.2538861400081898 1.1501874713778855
H 0.33196942537149327 2.01952303294869 -0.963134530552684
H 1.393061574153915 1.1486919826648596 1.4751133370225045
H 2.812697163753218 -2.0196005665486187 -0.015683356467652152
H 4.267920450888672 0.584954589005513 -1.1468286465520883
H 5.907136276698493 -0.8988793497217707 -1.9706696248896953
H 4.984007322273328 -2.3316632318187316 -1.274495223985181
