20

C -3.772065528851474 0.5734957614551794 -0.3640123446846052
C -3.347166178060377 -0.8196312360401705 -0.07979550426155442
C -2.1190247853646347 -1.21808082506862 -0.35614761280889096
C -1.1308981205992954 -0.3579516489984074 -0.935763768844472
C -0.43883915885178804 0.37875948759015887 -0.09480381677198838
C 0.267799541187135 0.9935697554046229 0.8354992383762848
C 1.4046720441607943 0.2905403840072263 1.3197123458496802
C 2.166436590311859 -0.3765468442449466 0.5048241392649069
C 3.060315491277815 -0.8232268922854009 -0.3653879546819906
C 3.980851399505979 0.1869796232413693 -0.9391300368966123
H -2.926853774304184 1.1204476746524135 -0.8109743726123557
H -4.670437107203012 0.547401526929996 -1.0451893528864857
H -4.034848861016442 -1.5022535034636155 0.34899684360631367
H -1.8168640412474122 -2.2439012106120355 -0.1433912994232245
H -0.858740016265968 -0.2143113085860374 -1.9443357657205274
H -0.1280133100871335 1.937006379237962 1.0864967280911495
H 1.6623806986162846 0.29501771418247535 2.355436846850834
H 4.209962884317989 -0.15987234329793726 -1.9899894497196684
H 4.96881164334786 0.2091086260287342 -0.4290835260601808
H 3.5225205891260414 1.1834488798669698 -1.0520672657834806
