22

C -0.5818423474573277 1.7050368298095553 -1.0552222779529283
C -0.4032646942135416 0.44693494246655335 -0.2462110227870225
C 0.7309294310476763 -0.36124328655746774 -0.8331301451948141
C 1.872428187970277 -0.5169213293393959 0.15222790561991967
C 2.426599453161419 0.7996208936914861 0.5511294280004654
C 3.7147241715972723 0.9230884104378622 0.7665228682515511
C 0.1573477751434692 -1.7059085824036 -1.0676989000989874
C -1.0989432838765174 -1.715744719471811 -0.7069023909958956
C -1.5299521429400909 -0.4359241706257467 -0.20076360547950373
C -2.683149024260511 -0.028437254956577642 0.23996910307528535
C -3.9625508901959927 0.20988664422870718 0.3258015191523055
H -1.5196450112296178 2.193444485798322 -0.7107223882005574
H 0.2441771480950308 2.4067086308578105 -0.7629193702677438
H -0.09133590018524024 0.7508722749191148 0.7793758620644983
H 1.4629458756826856 -0.9972093105380435 1.0782481769814272
H 2.6708374330635025 -1.1100070307516257 -0.30914039244514946
H 4.1212737897989244 1.8966776225186464 1.0610436950673827
H 4.444762931070457 0.12220772115015824 0.6775120642046152
H 0.6795640045317197 -2.5756965539564853 -1.4779104365860514
H -1.7480307922350378 -2.584139870790619 -0.777463237609301
H -4.333163555436747 0.026866989859746733 1.2758184676090027
H -4.573712559131818 0.5498866636532954 -0.46971797844726776
