16

C -0.0006213085685477347 -1.6244169165831075 0.927758541178931
C -1.1278502792497969 -1.1733691354395255 0.04165178449258778
C -2.0354467877611238 -2.050219751526108 -0.30147105355954606
C -1.1862094900660178 0.17521582545694517 -0.39931182753356836
C -0.25004278835061755 0.9944963459171537 -0.02027544591838319
C 0.7776868461956252 1.732753506500129 0.32235723303777347
C 1.919607573921221 1.6863889035245034 -0.5839619807969934
H 0.8402373664634374 -2.0129881104698772 0.30739237661870367
H 0.4311677913656281 -0.7457111093184662 1.4839209208785253
H -1.9624856948664509 -3.0545492153485347 0.047111631918635995
H -2.8460977605526785 -1.7514415299728108 -0.9310785529668214
H -1.925473467573694 0.6290560716914226 -1.0286622516889543
H 0.6329839204185677 2.259808936041704 1.2173551998057632
H 1.8335629278663013 2.375499168164329 -1.455348620539453
H 2.059451699379392 0.6435018298692265 -0.9337649985088997
H 2.8395294514758254 1.9159751825898408 0.030090041055496952
