19

C -3.9426405795471204 -0.6221934552262139 -0.26103599839187325
C -3.2838382744413264 0.6804202436181336 -0.35267563694046933
C -2.327038762200235 0.9228363489408319 0.5053675848108031
C -1.3150707467480705 0.9998463637153504 1.3418730152415965
C -0.056046943195442935 0.5140472134457934 0.8643592089821557
C 0.3544254703172084 0.679213583621057 -0.3800110034385002
C 1.633301012449798 0.1871135882438486 -0.8696248322189645
C 2.5164443994536128 -0.4709584010963964 -0.13687763172825423
C 3.7680435480839685 -0.8872037877914879 -0.8359708367272982
H -4.037102482582126 -1.016210419968574 0.749013917597419
H -3.3590986321234384 -1.3622662285190938 -0.8549613259115013
H -3.4607308969585806 1.4771663849142163 -1.0192527892110066
H -1.5778063019393278 1.4187071793448796 2.2743770146990925
H 0.6007773964595047 -0.013502647170765865 1.5375399316925207
H -0.2604130945680635 1.201310312118187 -1.105320079284195
H 2.399224126894461 -0.720014634585876 0.897808164630597
H 4.146894079609501 -0.07953701401583013 -1.4856353918819207
H 3.6100931376693435 -1.8025463227504634 -1.4241312589598882
H 4.590583543366432 -1.1062283068375869 -0.10525358561219735
