33

C 6.940118939797788 0.4356652638950187 0.4270535031347507
C 5.8842011757005555 1.4487101229865809 0.24848643562057862
C 4.619585024555235 1.0411748093073692 0.17146663979444313
C 4.272443485325362 -0.3658398607839643 0.2596703237620836
C 3.0157199539155637 -0.732093417892014 0.17983175309357394
C 1.9598784351122018 0.2525111248951189 0.0036380895463023893
C 0.6809625015933181 -0.15269677459724706 -0.07487265664050129
C -0.35460345148261746 0.8447899485509375 -0.2503565308224984
C -1.6651945094771683 0.5282252066769411 -0.3391246018773875
C -2.0651148031305904 -0.8571509452529337 -0.2573918999175723
C -3.4567706614051534 -1.2397117313456407 -0.34769379207967555
C -4.478867120825332 -0.4713529647134765 -0.5026573912667761
C -4.590500757826971 0.9753260694634558 -0.6347011930420301
C -5.741782262564441 1.572856342057176 0.1393829096272233
C -1.1293285030786864 -1.8046398467014562 -0.09492181059294107
C 0.30732154833542313 -1.5662138830794545 0.01154431295541291
H 7.010235711310927 -0.15453046204303011 -0.5133689248579743
H 6.704602337780384 -0.21852895240935052 1.297262382823675
H 6.144403455197919 2.487022043971817 0.18375384532210845
H 5.038594394377956 -1.095050977911528 0.38877403340878863
H 2.769575175874031 -1.775735341361343 0.2462437403727774
H 2.2063449357509426 1.3017844831738714 -0.0632214487934925
H -0.07639476253979495 1.9065597801785823 -0.3154879113328709
H -2.3601863507770684 1.3608119505619272 -0.4706607574526148
H -3.6716305248605607 -2.3394977870043383 -0.27372004658639854
H -5.467517456798567 -1.0061115906744904 -0.5445821674304909
H -4.491783285430649 1.3743197000076324 -1.642628906864655
H -6.660068108802559 1.0147905375687836 -0.1290832936721216
H -5.861452314785322 2.6301595114933694 -0.16617753247692257
H -5.608059399641675 1.5247450534545357 1.2193829666584477
H -1.4624329277126513 -2.8337052991000893 -0.03737197512382642
H 0.8461506655768616 -2.1144796768098453 -0.8051361559707522
H 0.7415494609323144 -1.9721124365626135 0.9578911962268049
