30

C 0.6148750705262587 3.97029239485556 0.5797585411032744
C 0.593599033268538 2.7791508639785807 -0.2974742794008729
C 0.6881468022043505 1.5512904310594682 0.18589576426314364
C 0.6649943286339973 0.3717839504653418 -0.7075923114071042
C 1.4980225998115344 -0.7374531404267757 -0.235360374817696
C 2.2818074875793486 -1.389661776700141 -1.0621368595534557
C 3.1125021167316143 -2.4808125069850884 -0.6398633811963929
C 4.356524137667672 -2.1903708377878632 -0.3502930138061194
C 5.572889881073691 -1.812084048212487 -0.07605988197677832
C -0.7442426453237408 -0.014125719134417193 -0.9502728016058296
C -1.6744258595696748 0.07024001758512298 -0.01964993979704739
C -3.03863183553058 -0.32800311243118274 -0.3339242157078246
C -4.008882641195959 -0.26499726196217216 0.5563801591714923
C -5.3935234210695056 -0.6563506207159244 0.27875322301474753
H 1.0180061612415916 4.85732348784276 0.011131260414385991
H 1.2732723224731908 3.853898865095427 1.4637946695060837
H 0.49823540329597493 2.921941772671157 -1.3587709197462943
H 0.7843963066605619 1.4312031313834446 1.2696706546969916
H 1.4699926507795014 -1.0226563725217035 0.796046586652894
H 2.322364225163969 -1.1089998061243143 -2.125844570767288
H 2.8702044235428845 -3.5054004731501607 -0.5238368278728943
H 5.748655864311807 -1.5162001853817733 0.9349886821846058
H 6.255942453439405 -1.841400177562922 -0.9004876527035216
H -0.9825505859177004 -0.375753725507744 -1.9446997616545785
H -1.4618918282714741 0.4214570537148502 0.9595278864246126
H -3.3065198666336313 -0.6958177746795869 -1.3273075973693444
H -3.7490813602553668 0.10367310659644172 1.5582282631789197
H -5.947907487225798 0.13651617202034722 -0.2839444942356065
H -5.934636094499261 -0.9650991496968307 1.1995020373027008
H -5.382137642912327 -1.5635845582816972 -0.37804989147098
