26

C -3.9015668641621533 1.1969245772929566 -0.9541956399467563
C -3.08535945490641 -0.10587253580234485 -1.0185671281261899
C -2.5812002604814395 -0.41617369594952086 0.32687451273769946
C -1.3479879746175403 -0.5291558835232519 0.730372544476425
C -1.0062943734912884 -0.8516224044768316 2.1410508857278177
C 0.3025592559125703 -0.9034607511601871 2.2745438750022178
C 1.0089534440962775 -0.6297180645964383 1.0013788950173879
C 1.8881277657666784 0.5497470789179393 1.0864318457367519
C 3.1606985719694314 0.4271816330802879 0.8838363854652265
C 4.417895900014752 0.17367141833054683 0.6956679850566175
C 5.709443369275236 0.18004697642800993 0.4431070569114923
C -0.11384760795127463 -0.4026958947548079 0.07779146815960433
C 0.03842544918766197 -0.12088473387827081 -1.1742201066981208
C 0.3140907653050201 0.15599856460762865 -2.433384361799869
H -4.747736124210516 1.1720901310498661 -1.6673840609175705
H -4.3205754710146556 1.3500945428893552 0.057602051703935675
H -3.8728688154535176 -0.8732924611906858 -1.3006959270433254
H -2.348527295902369 -0.02448526560237236 -1.8024457795775894
H -3.4208708160861283 -0.5646242310106545 1.0596829189014978
H -1.7098340237141814 -1.0200805510261872 2.943570103067918
H 0.8333286329813461 -1.1180701025687527 3.19178183953516
H 1.4767859747656207 1.513872583013493 1.3164796082566033
H 6.392331778751756 -0.2876488681104693 1.1578140255313487
H 6.109469990103625 0.6317046351196394 -0.44486536690679424
H 0.38141561910714555 -0.6917979881535692 -3.0597853534349224
H 0.42314256475406137 1.1882512910747 -2.6249690545702715
