16

C 2.286160229033808 -0.08190675766540581 0.5816736438402822
C 1.150199776151998 0.3606145875533587 -0.31023126703097165
C -0.17238764417061303 -0.16749089939779435 0.260525858029749
C -0.07252356549998475 -1.6546969192029517 0.2926071080638684
C -1.2315388944400556 0.23336829984866791 -0.7124514214764422
C -2.27631298798701 0.9284497371611912 -0.31980325059823983
H 2.1659685940352844 0.3868883724733326 1.5946401869219227
H 3.22725308862765 0.3367984801880289 0.14237641725845265
H 1.118741577881447 1.4341860833795603 -0.48623219557641906
H 1.3141427087916222 -0.16050448619895671 -1.2966881236449974
H -0.3686810903847308 0.28317373081268205 1.2353628127560679
H 0.29797105056870254 -2.072993782746811 1.2304637607400952
H -0.9168289290489069 -2.188734855831797 -0.15196861508046186
H -1.1048734029832283 -0.0674579047996581 -1.7373548378130348
H -2.39011707053018 1.2221432998445039 0.7067056317265241
H -3.0271734400457144 1.208163014582025 -1.0296257081163946
