20

C -1.7309321584289745 2.0682973280296686 -0.16605640372217007
C -0.32356386752332017 1.6259888240791927 0.014898986639684713
C -0.07684451805063747 0.3259816926058385 0.007219826533101827
C -1.0375394998950869 -0.7589984415393165 -0.16100732443925136
C -2.5162056490798146 -0.5810402542567992 -0.36042936865391684
C -0.3391313117363679 -1.8673897238799557 -0.09982769669769159
C 1.086826160128137 -1.5605001118420607 0.10787581973741628
C 1.2601916562366227 -0.25270926796038756 0.17405966771300957
C 2.477132089730433 0.5260349465754717 0.36798285326561664
C 3.6664231053934837 -0.035618697120027 0.5149088424103517
H -2.0313447135762135 2.8037966635931015 0.6282234643013924
H -1.7946490530933774 2.651250074589251 -1.1272474202574554
H 0.4318173451790059 2.3658333037817325 0.14352076172493358
H -2.6573065858118734 0.06484148158575014 -1.263434304220648
H -2.9803050916584013 -1.580134788229291 -0.5005273280122486
H -2.911571815757975 -0.14044316788788905 0.5576655904554081
H -0.7399013170323295 -2.867156481410812 -0.18763930250777872
H 1.9070078370346015 -2.2758176195624187 0.19861824260036906
H 4.515818897301747 0.6059219642806176 0.6534171493023366
H 3.7940784906400435 -1.1181377254315301 0.49777794382734714
