16

C -3.3722558740492925 0.9980622145760426 -0.31485982508695515
C -2.64509163789556 -0.2988183538447783 0.0387286107221809
C -1.593412784128655 -0.5362372554266157 -0.9477811247212327
C -0.3391275502758581 -0.7231675836278558 -0.5865582974979647
C 0.7706518071267912 -0.8967507511865976 0.11926175568858412
C 1.469438721181493 0.24930991672733047 0.5322391407653516
C 2.7498082130398753 0.2079206837763142 0.282386633243076
C 4.039675840680357 0.1709616415096126 0.45635779402878823
H -2.635892006241485 1.8199344976144758 -0.3409774741810017
H -3.7879229257440334 0.8675698794313466 -1.3335840738398428
H -3.4355992789072616 -1.1015613792881178 -0.025463709863381447
H -2.3235956062853114 -0.2540040283869586 1.0774158755898346
H 1.007186154983414 -1.939078978373404 0.2971111006533632
H 0.9884837024051262 1.0785506360935473 1.0095581449535727
H 4.557932920366337 -0.20587179900815122 1.3050613618531364
H 4.549720303742144 0.5631806594134174 -0.3517280745602811
