19

C -3.144231825264359 0.2878720082376916 0.9478420873740975
C -2.8611517528278827 -0.232656265035897 -0.34209982371054
C -1.577102986920819 -0.4791938850165697 -0.4446997515262357
C -0.43338279608498953 -1.048997276002382 -0.7231589018234869
C 0.46832487499537234 -0.0981791728571822 -1.289251555376385
C 1.950320140899504 -0.39196263885681515 -1.031962193967771
C 1.290132756656961 0.8007502470946509 -0.4288706385690114
C 0.9671270305652733 0.7326842334821374 1.0195417125748487
C 1.9562227840025646 0.535729926722535 1.868645695435493
H -2.4376274615808518 0.9623738706617775 1.4197813998606301
H -3.7154585342847546 -0.3296864829420664 1.6507106178497328
H -3.586572546022736 -0.3904240059403002 -1.091120237929256
H -0.1753934756191792 -2.0597586300152675 -0.567745939925274
H 0.20935358861709688 0.35142571752502433 -2.296237970943006
H 2.560810693653835 -0.3245766935029366 -1.9284946069823685
H 2.20486571369667 -1.2548225886162097 -0.3862285561992077
H 1.660032415420266 1.7723307239096517 -0.8101254631666736
H 2.9592912692692557 0.4297887021123076 1.5070511445815848
H 1.7044401108284937 0.48814914797253944 2.9264229824427312
