28

C -1.2295886505012015 -3.4559214061004973 -0.36259005449328585
C -0.38221646155560424 -2.25246729690713 -0.30514788678629745
C 0.9071270320518223 -2.1687290226905462 -0.21357783911020572
C 1.3732642271999778 -0.766652937003517 -0.18344751510355223
C 2.7833664863736542 -0.3607508459393893 -0.08036548020147796
C 3.1779711584958634 0.8676086056604949 -0.04954624357854502
C 4.6601799098229995 1.1038422318426409 0.05756324172018572
C 0.2896517717995564 -0.018184399810613153 -0.2641762130946032
C -0.20542315387920393 1.392264277388268 -0.3009977237170219
C -1.6188758508618994 1.3019357489277075 -0.5721461813426897
C -2.6230458416185978 1.9333923644737572 0.3585616983655297
C -3.8523208830711066 1.065689958701619 0.10142535368048829
C -3.448579285012504 -0.14885449739060677 -0.3164242131602356
C -1.9808207889021059 -0.14595244478058939 -0.35260256271484625
C -0.8799857533206872 -0.8661542826050876 -0.3464287660778306
H -1.0468510129005368 -4.150186191057042 0.4931366205182295
H -2.2847889791479856 -3.2311087486640404 -0.5317787532845463
H 1.6121602861468924 -3.008525695021618 -0.16158177939435212
H 2.4888455317030322 1.6811963591365224 -0.09218779677545479
H 4.775062140444976 2.1421201081004706 0.4741015351074235
H 5.056891710287313 1.0225506227693633 -0.968881216679343
H 5.072489156420094 0.3373682996703374 0.7088302956384112
H 0.4033135931436075 1.9208496193707376 -1.0730190227476148
H 0.02911067186295355 1.9147228574640236 0.6637805247583203
H -1.8205846424323153 1.5823928113435766 -1.6382889352890908
H -2.329093621712292 1.8933569692196992 1.405981964883865
H -4.858143431782528 1.4046683713069479 0.242406143383122
H -4.069115319054256 -0.9904714374055239 -0.5827838008277811
