29

C 3.2884952217369756 1.5922328743683227 0.3200584488970957
C 1.9866923611529115 0.9172535798510475 0.5021963536587463
C 1.929322750431719 -0.38383405740753046 -0.17651837704382192
C 0.6393051945303533 -1.1048771153796109 -0.021605019050045804
C -0.3530687154239332 -0.6183118348001575 0.6605233858774539
C -1.618657174719384 -1.359618585569984 0.794069966246306
C -2.7554105816757395 -0.531499163953267 0.32042721075339525
C -3.011045181118995 -0.41108731564841144 -1.1231718198071954
C -3.507483405055356 0.07651984813694303 1.228648859443865
C -4.668692730394438 0.9299493477254009 0.8970469841705783
C 2.864603668417121 -0.945460571286159 -0.874347804663666
C 4.184467202998103 -0.3700482438472075 -1.1200477456470854
H 3.817956982171858 1.835686015191831 1.2629825751438122
H 3.282046155258014 2.433211144344881 -0.3972810720763798
H 1.8427250988748354 0.7470152649615385 1.6060611692443159
H 1.1096775585902392 1.548910265344146 0.21329957264842989
H 0.5484463465809575 -2.0570496539923657 -0.4980574450253883
H -0.2449189975794159 0.3455995373428694 1.1366964371500778
H -1.5351342807016122 -2.3298461094165934 0.2930188144336172
H -4.108215213396959 -0.3511377762058997 -1.287600229751299
H -2.562179779841601 0.5256299636433833 -1.5342989101367346
H -2.5982925932726544 -1.3075111458903488 -1.6302540905810037
H -5.053900271472265 1.3789927139162068 1.8216086888733594
H -5.424379718844813 0.2966879161077992 0.393908016479674
H -4.421042276097408 1.7652572427474227 0.21206191241088035
H 2.6588755460862705 -1.9296288281551262 -1.3194320392104717
H 4.789063970085786 -0.19167632487821665 -0.21883869762617011
H 4.8370355287379185 -1.0848969599907734 -1.7296637925174365
H 4.083707333941317 0.5835379727398916 -1.7057113608602856
