20

C 1.896619043907099 -1.7274635827957656 -0.37364904614931177
C 0.8473794952216803 -2.0862079068710035 -1.3871141271521001
C -0.22537736932508437 -1.315200608118852 -1.393532710398238
C -0.43854742943563935 -0.20261482185835866 -0.5265026467020736
C 0.42786461327571956 0.7649670545873231 -0.6273129027573292
C 1.2770592647577217 1.7717779108554086 -0.7746930421086233
C -1.4907067871219413 0.007779678709176693 0.459878314804735
C -1.386395389242012 1.2937643103759695 1.177055807108775
C -1.2459359999996518 1.322826585993856 2.4850632017983116
H 2.479049432879543 -0.885821548948466 -0.8099781881390404
H 2.5624033279154155 -2.6177420848474933 -0.2829930315508155
H 0.9680221735355969 -2.9081311896669475 -2.051802385664436
H -0.9983843990736048 -1.5531960962519484 -2.11640414552273
H 0.9927308317604793 2.494028431758555 -1.4876994350229973
H 2.1128986009588613 1.6860047587707416 -0.14476993945496783
H -1.4929426306613165 -0.8230507017545795 1.2230320388745448
H -2.486383082908496 -0.07414471844978719 -0.07039980199751127
H -1.4235630777679769 2.228558035342974 0.6417182397716908
H -1.1665155830296627 2.2412281833065846 3.043355104794627
H -1.2092750356719075 0.3826383098652904 3.016748695469212
