48

C -4.086279270461144 -3.426667690694576 1.7156427595602304
C -4.165451688001055 -2.457480181305554 0.6018803677084482
C -5.317057664414097 -1.8345089441187736 0.3650583671943292
C -5.652467970157302 -0.8288385957941045 -0.6796092142808707
C -4.677531279645038 0.28589180776921447 -0.6311649248430382
C -5.150822596594199 1.5329627402467285 -0.4025157231434516
C -4.030007358099268 2.507709114303664 -0.3903930876741046
C -4.149021133104091 3.5001297179849096 0.7406174734323054
C -2.810060533252525 1.6488786454276878 -0.2369523525452796
C -1.5892563953611578 1.7815338437736508 0.22743879402284772
C -0.612141602209709 0.663761005245807 0.2160377659788752
C 0.23581993432467965 0.8562063770290466 -1.0076816241594746
C 1.5162933005787107 1.0697745685922606 -0.9022354628778662
C 2.7950494489801594 0.9042290981189781 -0.9915781701275932
C 4.0757832807021 0.9850967016585278 -1.116901213105727
C 4.8844591215404805 -0.2531196671161128 -0.7984362331318424
C 6.097758718426615 -0.3140882086517617 -1.6657118569079068
C 5.097559506857787 -0.22961936354240617 0.6462373940966935
C 6.167140675466606 -0.25171652766009756 1.358912947861859
C 7.517011043635777 -0.30919425962754804 0.87699036432773
C 8.51089502245405 -0.324442061182945 1.7857524842024195
C -1.2746389381441012 -0.6494649736232945 0.19724596805467468
C -2.511650894279884 -0.8174719212139866 -0.27282223636790776
C -2.9370944410253346 -2.2626427097842536 -0.17162926360402664
C -3.2213083887732825 0.33113017023676056 -0.7903928435415679
H -3.490985582655828 -4.296254440169802 1.3674195685370754
H -3.5561377730871255 -2.9301328614466122 2.571301171723272
H -6.114516105853136 -2.096263320034735 1.0213344688418962
H -6.699594712327076 -0.5133276023590189 -0.5304549942591918
H -5.625223051091525 -1.3365283361962337 -1.667564075971382
H -6.18448242458558 1.8099044462716667 -0.24797234631310983
H -3.6193343734151444 4.422754596369909 0.4247207434213597
H -3.665923888122355 3.1543139932958124 1.6743907217572496
H -5.217858086728782 3.7779236529124938 0.9210952204814349
H -1.2782712524118969 2.73397760178606 0.6332755503649647
H -0.2908116034982211 0.803893450244698 -1.9517928565571045
H 4.634229642089683 1.8534904321236914 -1.4284748652450916
H 4.252869091765217 -1.1630033219180902 -1.0679877044925374
H 5.809032153814608 -0.7307379437567523 -2.6544620632810525
H 6.433856354954929 0.7403986572744409 -1.8735672952716027
H 4.126893532456472 -0.18324985588253143 1.2280175155023885
H 6.048467563234557 -0.2239698487414512 2.460664995422436
H 7.828243020727012 -0.3423366981127671 -0.16263917628548516
H 8.280689633149235 -0.29413110298619605 2.8252368247240347
H 9.513502284167057 -0.36722958033215786 1.4234219778183093
H -0.7583381087039778 -1.5148873483380925 0.5716195478790228
H -2.083775462052273 -2.830654383284762 0.2049395169747191
H -3.0555107512703668 -2.5819988727913246 -1.2490398429751557
