16

C -2.6698384678970033 0.04069170227723521 0.5048410698022231
C -1.689126432542124 1.1098591138160314 0.1769123746852239
C -0.4754588221732873 0.8128794961070589 -0.23911174368705757
C -0.03706249340774538 -0.5784121848835431 -0.397465898968793
C 1.1502461202481808 -0.9343708458041337 0.4611036666000008
C 2.3642074819655226 -0.13428624677721077 0.2031964601559773
H -3.0213987375923534 -0.5126444041452531 -0.3704186090732727
H -2.212529895682754 -0.5920681752994796 1.293482044980137
H -2.01138346723462 2.13037971365879 0.2933044330793144
H 0.20918168413194713 1.611645054368121 -0.46773500834273557
H 0.17888095132272325 -0.8484632386217811 -1.4582231954504767
H -0.8643482584081402 -1.2541398566770043 -0.08834838890219839
H 0.9182508563049435 -1.0292960074476818 1.5192778539157552
H 2.9682556195493843 -0.5874590140077419 -0.5896612033179636
H 2.1954422541091487 0.9226594112066321 -0.048428030602200384
H 2.9966816073061313 -0.15697451777003255 1.1385444987558044
