18

C 3.8198606661865 0.5233061931168744 0.5215985676606525
C 2.5156786034260428 0.12054977584172752 1.0664341103430175
C 1.811932347182345 -0.7062765318261188 0.34999829079006106
C 1.1440348818284054 -1.4575141051056129 -0.5058186021592191
C 0.34514185258108465 -0.777271955830462 -1.4573771575677086
C -0.9284247133401567 -0.6340508441638183 -1.1699230413082833
C -2.1491146742541174 -0.4600160880522207 -0.7406322575566672
C -2.3981532039774125 0.7087329076107269 0.038951033903547684
C -3.6385061222252673 0.9111687760045524 0.4908066301350002
H 3.7549625734731187 1.5807751876551552 0.19994968395870566
H 4.584612304918597 0.3971079093735398 1.3287440123190233
H 2.048011503398478 0.409321305358557 1.976658549740359
H 1.3121410839708336 -2.500679270897573 -0.34876607133836474
H 0.6028730248691173 -0.3460736763239388 -2.394500920106201
H -2.816232330247597 -1.2215700245830852 -1.0275680621934193
H -1.6571136917837697 1.4479103172588048 0.29415950839259847
H -3.900809045850239 1.7785248212826519 1.0898578599787092
H -4.450895060154204 0.2260553032804391 0.28742786500671813
