46

C -1.8038971089742453 -3.208871800028483 1.3582080771556349
C -3.1748823824497974 -2.7485559454315607 0.9847497668363975
C -4.165183051321037 -3.0291617257310124 1.8249381827270241
C -3.4896353167522767 -2.0331886323635024 -0.20472279297513996
C -4.768719727725685 -1.5325011242187268 -0.6760434459975379
C -2.4618168087547123 -1.8002019945035124 -0.9712538307115733
C -1.4420384101871795 -1.4375820171705997 -1.7135889260508232
C -0.8444549963715319 -0.1543396610405751 -1.358975907183837
C -1.5482916218213478 0.8465188610906805 -1.1056187165867484
C -1.7517058652690516 2.141851442645485 -0.7636831222866336
C -3.1763628532464323 2.665159308774456 -0.6519957218553629
C -0.8317962384888775 3.047215530174824 -0.5037247341702419
C -1.1536317408697483 4.461582789251202 -0.1323402164024133
C 0.6253993457434036 -0.09974783670025016 -1.3151414949953832
C 1.3299782865384875 -1.2041980066329476 -1.5962033403759526
C 2.7547789808335996 -1.1340375583299134 -1.5490691916914971
C 3.283162689020251 -1.1271205353794038 -0.3418257975037898
C 3.7218452856935804 -1.021342708649356 0.8932676797683066
C 3.8102305456026824 0.302220258518818 1.4159313982421478
C 4.992625246902711 0.876856515266917 1.5614422920959001
C 6.200530411321019 0.16191340234785512 1.1897316680143613
C 7.378866371805064 0.7415159151067334 1.3375024804971691
H -1.134674609095065 -2.89522161249818 0.514289144006826
H -1.8640937955103067 -4.320780436243791 1.4360250714152611
H -3.976769486838512 -3.565818507560357 2.7332594389440357
H -5.170325864843727 -2.734799096481954 1.6293057777399194
H -5.40602183425081 -2.3231762067109143 -1.1708449963528595
H -4.668654484496036 -0.6573544879030214 -1.3266624162288911
H -5.385740421090716 -1.1964906869887586 0.20428641138645268
H -1.196653586216544 -2.1172446802555753 -2.457950462064717
H -3.332221671394718 3.1128966135153213 0.36116361984026524
H -3.89629928506412 1.836591074608418 -0.7353256326879243
H -3.3825647969024257 3.376273581567038 -1.4723244157566882
H 0.21842324289225473 2.8229430494776167 -0.542890645589504
H -2.218051065028057 4.682498458660075 -0.3104799835065469
H -0.5261151954714435 5.095449888794569 -0.8184341201497558
H -0.8526986296436087 4.60002747053028 0.9145451576110045
H 1.1695625820108007 0.8051335455966806 -1.062623702168523
H 0.7607935679576042 -2.087834747929344 -1.8436154130886329
H 3.4739073546221033 -1.0847091631327404 -2.319611172255972
H 3.949939150271015 -1.9517834423927678 1.3320285827908775
H 2.9421802387553524 0.8813595278199122 1.7091909611522582
H 5.097791587025421 1.877130604080323 1.9536995956768786
H 6.131074060728902 -0.8478761964518505 0.7911230029154805
H 8.295354471612598 0.2365289030937264 1.0704409989547912
H 7.486857428742423 1.7422720698080285 1.7298208908658548
