25

C -4.106495912086757 -0.9126285428286028 2.053736230728398
C -4.04685262052435 -0.6116920491159696 0.6311781640850068
C -2.8998849854988373 -0.17374964775216575 0.18358519849666047
C -1.7130722970612797 0.2856615948587807 -0.14067260951021462
C -1.5446303255873195 1.6874312882762164 -0.04384238770924628
C -2.500109596071244 2.493597003839181 0.34033623141960695
C -0.8089796377826173 -0.7283073267199478 -0.531099734747452
C 0.42333850563687425 -0.49189265475982996 -0.8907366924140667
C 0.924371222175859 0.9090851231168736 -0.8978652228965894
C 1.3171821113117181 -1.5913211529442386 -1.287024555585999
C 2.5315935158421685 -1.5764580236441885 -0.8239277267317628
C 3.8102192906421615 -1.4936823442962304 -0.6110778286045192
C 5.0079999679236025 -1.1884540273573867 -0.21545288850582717
C 6.06158901277855 -0.5512743250788689 0.22909339528130188
H -3.7664711497627206 -0.008784550391738236 2.6130420890524806
H -5.132433294552604 -1.1361876017600976 2.4331930745036514
H -4.778420522506973 -0.6839766896739602 -0.1188959897979517
H -2.3256710801489806 3.5543895130083953 0.39894511748118655
H -3.4740260443066626 2.1246751160010398 0.6050311848684726
H 0.29913766321821594 1.4814773720942496 -1.605535428217456
H 1.9627254424949343 0.9564225912492466 -1.3120124977167784
H 0.8576170719521002 1.4004534942726614 0.08589555404999577
H 0.9247895192272421 -2.3575977508968506 -1.9421859749188664
H 6.629755701707174 0.10762848776869234 -0.3956838177555505
H 6.346728440979002 -0.7043665158948083 1.2419771151455183
