18

C -3.891724541243827 0.8963994437668545 -0.03605792858711969
C -2.749375465477585 -0.03742519431204137 0.13240262771203776
C -1.6764284837728882 0.2406212471384136 0.8477028001117766
C -0.6225231534543282 -0.717588627060124 0.9565008982403118
C 0.36401183915562313 -0.5867218127700622 0.10230079284485154
C 1.3724391256831305 -0.2868698361803428 -0.7002147490991472
C 2.3724595239975494 0.6269423730721432 -0.1871386265789311
C 3.620496426430212 -0.152174790084582 0.18603214969942988
H -4.005471383604284 1.5462628162035483 0.8541694984076734
H -4.8587691087726395 0.34796034701088746 -0.15196989434834252
H -2.802311821089519 -0.9947156394294359 -0.3579278451866367
H -1.6656268308164401 1.2232181894365444 1.3274129534128345
H -0.49590414065111554 -1.528758299229868 1.6191163979077992
H 1.295090572838782 -0.775600729383324 -1.6307992204428132
H 1.9996969481141282 1.2653516677185124 0.6061407249067005
H 4.291356099640532 -0.1923495478775193 -0.7126178219379753
H 4.121239240557606 0.3376221817934447 1.034051081381694
H 3.331345152465319 -1.2121737898130684 0.4192008945084336
