22

C -4.1809009072164205 -0.45662962435868476 0.444684293806019
C -3.6325548459560704 0.9159832087292086 0.653935317623327
C -2.314238685857405 1.0616427057721647 -0.11045609983180638
C -1.3277883367426444 0.06608214348225128 0.37499432794439
C -0.38286422352676824 -0.4382715713083977 -0.43508765628961865
C 0.5716513578698956 -1.401099676262419 0.033222344738012326
C 1.836219704305312 -1.1825262147566622 -0.28002859091905796
C 3.043409800283431 -0.8151473122448561 -0.5819282730797269
C 3.710376318132695 0.04334024799737369 0.35584970748446265
C 4.941497939479162 0.4336386981122379 0.07421070252986756
H -3.762552449945995 -0.9654511690383988 -0.4558505723892272
H -3.99152733586952 -1.1267264328308184 1.3192664686556297
H -4.365339554857671 1.6436374431604406 0.2764400183736899
H -3.45043268505234 1.1604961114285315 1.720266488020137
H -1.8791619182461208 2.0694778118850943 0.041956342453905816
H -2.5046770133358423 0.9472146077125265 -1.1984890148163998
H -0.36630354642404006 -0.09479174827985495 -1.4491649505674895
H 0.43717365118102675 -2.273755017678525 0.5993758158391292
H 3.410330244597193 -1.1904162078850282 -1.4975806966396474
H 3.2677884338384575 0.38377406083295557 1.2674302501653463
H 5.498607848877006 1.0904876324451385 0.7560177171407639
H 5.441286204466558 0.1290403030857618 -0.820424345544714
