33

C -6.8952749489778435 0.456857986743098 -0.76254091532655
C -6.147568610936495 1.0410073814854868 0.3441414225865462
C -4.8566110212654765 1.1822087136219388 0.15219350004771628
C -3.555009962780912 1.1762817295819414 -0.08830497409730155
C -2.8434117392503024 -0.02688579531737611 0.2818301454742835
C -2.0796554046673617 -0.6708113943471921 -0.7904540130299799
C -0.8141014366455273 -0.7308207262963642 -0.43852459651451253
C -0.6602838773656187 -0.13403965902112688 0.8812487369118857
C 0.651026356850931 -0.02714407541715437 1.6033148383814113
C 1.221643872469904 -1.3466948277554447 1.8236435815429657
C 1.9934108967242967 -1.8159770172257272 0.8632610379889956
C 2.8355132230674065 -2.132987256754953 -0.10500441335263641
C 4.208220741631163 -1.6869028206465662 0.07281242562899277
C 4.826166627699451 -1.0844419024386134 -1.1173079926381535
C 5.074749961279834 0.19381808478810797 -1.2419149705316683
C 5.378652992865314 1.4404355394144213 -1.1137182933620795
C 5.682236255743298 2.7016696955714967 -0.9212276191930651
C -1.8353477088781966 0.281091010474115 1.3142669290962206
H -7.1444927094826935 -0.5998394723646739 -0.6456843204603636
H -7.771184557902046 1.1065057594716674 -0.9769686554556387
H -6.472529352960504 1.3751430462795262 1.2924199591061662
H -3.226093569197609 2.074392968243168 -0.5264490508166173
H -2.4492091317730504 -1.0514708331297955 -1.7349800905496262
H 0.00021668221831236617 -1.1535260999257881 -1.024027379171901
H 0.4517397152604015 0.4292609765351023 2.613563707911338
H 1.2996598991400954 0.6736902902889256 1.07556924366033
H 1.1265714696070437 -2.0113842481733566 2.636194282263187
H 2.375890691642042 -2.674223607513182 -0.8819388878697122
H 4.827269386565721 -2.5538875218159607 0.39017422230117355
H 5.109955266983605 -1.7064086582228153 -1.9710966282056663
H 4.9315831418562635 3.447583736685061 -0.6583201051777482
H 6.717221211851236 3.0653511532626734 -1.01755380035884
H -1.960954361370462 0.7621478439192769 2.2837001688301437
