18

C -2.805900753503522 0.9239374777990994 0.6496930668256581
C -1.9297643956404529 1.6104177691588382 -0.3272870253238096
C -1.1374706300724389 0.8808291033124351 -1.088689271050857
C -1.128614286977861 -0.5472746566960929 -0.9688296738924203
C -0.361221317596261 -1.0388391835601558 -0.023562796395181506
C 0.5013198476740839 -1.4405400340432108 0.8921456946564206
C 1.8310633033156354 -1.6403738547781803 0.4364716368764996
C 2.4888231437329895 -0.5835652814146206 0.026054240767896444
C 3.0623796132096706 0.5193605561078685 -0.3549064623145953
H -3.1195861513238485 -0.08283001779835966 0.295607901117588
H -2.250081364782262 0.8318528162914315 1.6037500995722032
H -1.9824641254497548 2.686302966453084 -0.3695478422234038
H -0.5188506534165437 1.4407798586576626 -1.7853335156601808
H -1.642030944837869 -1.2843630828058197 -1.5216162028485944
H 0.06304564743819457 -1.5542227812138794 1.8468062775427871
H 2.3994875664669486 -2.5427451485862966 0.3724776502237629
H 2.9372020051776286 0.7685815576588347 -1.3879001387599461
H 3.5926634965858852 1.0526919354573758 0.40596102583292204
