20

C 2.588111894792559 1.749841739304138 0.4351720644866826
C 2.5260051530563556 0.28797249705644107 0.6307023627546657
C 1.9989156757568096 -0.46061271061154546 -0.30028549254449366
C 1.1412912508962474 -1.096461392583896 -1.0834145822358938
C -0.29994272185134685 -1.042709527580838 -0.8012007289475402
C -0.601443275765298 -2.023266645916604 0.33691418763707126
C -0.800460969236602 0.29476438318684095 -0.3801436545440941
C -2.2653810950682813 0.18612425946530795 -0.1333681762270392
C -2.9911630349845084 1.2031937077149768 0.3182651345490054
H 2.954760145258574 1.9376808374588177 -0.6162776703279905
H 3.3049284026111985 2.193987469329117 1.1698651585979707
H 2.890441609014591 -0.19020662612470146 1.503828380498826
H -0.8376743909901236 -1.3376568015208865 -1.729044951354722
H -0.2647685814662627 -1.503994341839074 1.2637943394608089
H -0.11088789136648365 -2.9889982080518873 0.18758701384432153
H -1.7166362972040559 -2.099803011646996 0.40642516286489816
H -0.3378306240797587 0.6307421882562502 0.5793892239260436
H -0.6179004052029061 1.0146114318400479 -1.2046768223019877
H -4.04505723645972 1.1036919113299537 0.4892347602929844
H -2.5153076077109144 2.141098840934665 0.5157462395236749
