24

C -2.253391724832145 1.3961863486914368 1.0533210954182506
C -1.4072733877510604 1.243615908927465 -0.1941350148863009
C -0.22084604546541664 2.1007645421103534 -0.20464937353959617
C 0.930174699709047 1.6303919483903213 0.21374344430581937
C 1.057638182065362 0.23954639875016628 0.700788543890645
C 2.4366175054463195 -0.29549516030784956 0.5665898090103512
C 3.243323395053598 0.21901988701940284 -0.33441726693516816
C 0.07184402876971027 -0.6586055586727666 0.08702803420656045
C -1.0895818840046412 -0.20138866956350296 -0.3377727641677826
C -1.9146965212460632 -1.2463593682711565 -0.9092137207613182
C -1.224808180865406 -2.372706878522305 -0.8251341554797176
C 0.0928641276434556 -2.10672260261506 -0.18870971627416006
H -3.014297694620833 0.5742185937668334 1.0260618794703322
H -2.792363662902863 2.3769907441278173 1.0620011276393664
H -2.06259663753613 1.5784045025336662 -1.0498229883525447
H -0.26810355649526146 3.136259984944814 -0.5563681536402197
H 1.822899707393015 2.2469739658536896 0.21520449182444915
H 2.7193509203767348 -1.1026924733342327 1.2323434428964481
H 4.249115524736538 -0.16527075187178084 -0.43821208265260947
H 2.931188202991012 1.024568705468923 -0.9843175553047749
H -2.921097547284155 -1.172616416131466 -1.3407683261320122
H -1.55927330087239 -3.358769666129953 -1.167486861027535
H 0.23356608082030017 -2.7226382165015464 0.7263559311455664
H 0.9397477688714905 -2.363675768662727 -0.8619513408938382
