35

C 5.817519242478902 0.060219484150695904 -0.7875793961673501
C 4.783550211763932 -0.8045697358396313 -1.323399361789394
C 3.7947480114870156 -1.0996496055284617 -0.4956507149573534
C 2.8107034143455945 -1.249742471316021 0.3657416348662749
C 1.7799606115992996 -0.25949351221123007 0.3144078836466613
C 2.032523524254527 1.0818930568962335 0.8153994789929476
C 3.2084884243713128 1.42255219241344 1.327361967933476
C 0.596906123549531 -0.5749061736804073 -0.19221342078371703
C -0.4576934588635296 0.4074346527989129 -0.25425416761526787
C -0.5456447842156108 1.286183354025696 -1.4070832773893394
C -1.5920953913291782 0.25546658089143215 0.6119149288656118
C -2.601168292309031 -0.545766167634704 0.3142591144185226
C -2.573844685925062 -1.2949642458865607 -0.91394823020837
C -3.563901446691605 -2.0954168803864115 -1.2289012671665407
C -3.7180327781525278 -0.6769016778325192 1.1965460058995359
C -4.560114940302306 0.328607261437379 1.2259996616390056
C -5.355036364461901 1.3851196225301876 1.192736185958847
H 6.095489499795825 -0.1901266331926032 0.25174069837862456
H 5.665575947773785 1.1368101259745984 -0.9545624985744097
H 4.667369437622445 -1.2519672197596312 -2.2693953310704824
H 2.924002062832782 -2.095040805510701 0.9854596822115875
H 1.2373399347958765 1.8108378318893945 0.7649984780180452
H 3.3752133506426176 2.421769036050285 1.6931582577068425
H 4.0288608710948965 0.728874532489535 1.3973309223581616
H 0.402234767361573 -1.5758479859995584 -0.5681931542676735
H 0.307762651148599 1.1415188712914615 -2.0831935906845467
H -1.4622694051084508 1.143567117327552 -2.00137339503393
H -0.5338791165173389 2.3838269283133244 -1.1406991880360655
H -1.6137910425423574 0.8293377880401749 1.5534670243905717
H -1.7415211511861324 -1.2024913862042357 -1.5800853913993578
H -4.419016245048534 -2.211713450807285 -0.5787179176159317
H -3.586806382631362 -2.6796627892126597 -2.143421607354297
H -3.975147224043102 -1.474452896399267 1.841410921697701
H -5.103623160729522 2.1361074143135244 1.8882709784867517
H -6.124662216862016 1.3225877865680757 0.47437607899331186
