25

C -3.241978480502207 1.3758902179863244 -0.4626870408935845
C -1.8900214749418536 0.9020753241886222 0.008209474895645483
C -1.5560221954010671 -0.47167831262941123 -0.5294383492004093
C -2.5612348226013886 -1.5103070332871584 -0.0931404526087332
C -0.1739185709543653 -0.796034020570477 -0.15487673267315555
C 0.5614328641965558 -0.01703164396757956 0.6280931126315995
C 1.9592624771542206 -0.35315832051354523 1.0019650841634407
C 2.725626780563022 -0.9094331438054533 -0.13457728862767374
C 3.784936139154092 -0.16688460403445377 -0.40117746514675545
C 3.777816202226526 0.9312991147558596 0.5526630325019096
C 2.742158906016251 0.8475566345519258 1.3675492749507263
H -3.426859034519306 2.3569967085193 0.03796337593206792
H -4.0455469363617595 0.6409396893720287 -0.2823247609096078
H -1.129005310275946 1.600073941390769 -0.39351485383790297
H -1.8816540453598694 0.9482461376513799 1.1043886581056197
H -1.6555872531660984 -0.3990774015566922 -1.6431491664238542
H -2.1437381708734873 -2.503561068875159 -0.3496193729186893
H -2.865726402318674 -1.4164663400239736 0.952074043841823
H -3.4692337129380104 -1.386592567299659 -0.7210181984007884
H 0.29293592137851043 -1.7018426091166416 -0.5167847258589663
H 0.17926405244381236 0.9190904467006242 1.0437300542884178
H 2.4438965901255987 -1.7991275157317848 -0.6610557543668644
H 4.523911464473132 -0.35097259455047414 -1.193057367304361
H 4.547797739349433 1.7176889375232516 0.5717655331256141
H 2.5014872731325704 1.5423100233217417 2.173260290928908
