19

C -0.2654726590099917 -1.2011536230349125 0.036121369369552674
C 0.03433772630140453 0.23955075696098743 -0.010789309871914317
C -0.8458617281832932 1.153610510217766 -0.703928730523103
C -1.9401303795315905 0.8441116684885627 -1.3319553617396773
C -2.4573466855428623 -0.535918456548583 -1.4293573003868392
C 1.1057635487654678 0.6937135177393272 0.5797285860034271
C 1.9774384981174564 -0.23817141104278208 1.2703131776526382
C 3.0492421909371163 0.1935976622359906 1.8646679661461736
H 0.4431312638695632 -1.8035757863463744 -0.5829639298550328
H -0.3067957536442644 -1.6060293618635328 1.0794231424008003
H -0.5503263389593182 2.221279677592429 -0.6933527472806537
H -2.511546401673893 1.6233740686201839 -1.8121020848035405
H -1.7124818858612922 -1.1961887783030396 -1.9353173903221568
H -2.6536922506653493 -0.9988401040733337 -0.44198835957698746
H -3.4405627475229 -0.5635074635140157 -1.9674224907552411
H 1.3498755102520998 1.7431249632583279 0.5615149369148901
H 1.7331499733642848 -1.3126231835719704 1.2924746007205994
H 3.2996836698634144 1.2476031187465797 1.8496175112108215
H 3.691594449124434 -0.5039577755614266 2.375316414696082
