12

C -1.5657114975754474 0.6201173180261583 0.748495367594207
C -1.186701046415221 -0.029719127664084397 -0.5332983919293532
C -0.05384311943043787 -0.944371501657022 -0.46218331361085785
C 1.0983544107933794 -0.43332566944173995 -0.1281020776200452
C 2.219936485164089 0.1639089411592714 0.1877676867942376
H -1.3212230966192688 1.7028455032841505 0.8037125389924655
H -1.3477500810166052 0.05804878861248379 1.6545736145250969
H -0.9516834484763894 0.7462244597570964 -1.303533898237779
H -2.0697738267978907 -0.6195282882016339 -0.9155963351968278
H -0.02531703471555551 -1.9996666268919732 -0.6478752792020296
H 2.789130874648049 0.532531069342739 -0.6363232260842983
H 2.4145813804413048 0.20293513367455848 1.2323633139751795
