21

C -2.9648672969443175 0.5637693153953881 1.257418453753343
C -2.0631744152461873 -0.21430829122291686 0.3769296840052956
C -2.5269308815302636 -1.290910112518479 -0.21834999038003575
C -0.6885175105643199 0.22619376927486354 0.19080376651225278
C -0.21733566895101591 1.305555869830351 0.7839169760393464
C 1.1521451634138407 1.826304203279012 0.656104524404934
C 2.0408914285189197 0.9499222074736978 -0.09508181301367531
C 1.5892308354552114 -0.13565889255373395 -0.7007294244345144
C 2.5471276415736694 -1.014878101565564 -1.4683545530067876
C 0.18201579110695315 -0.5710777081467265 -0.6855989031101274
H -2.6260072297675983 0.5390290602920759 2.322995889875061
H -3.0779416502602417 1.587837353445419 0.9008673747398133
H -3.5350167543767954 -1.6533718207358794 -0.10848024918251192
H -1.8624654556762525 -1.8498415045096908 -0.8583972785982985
H -0.9110186949140722 1.8556872000944822 1.4246850068657677
H 1.5309048745915306 2.0329367570843533 1.678288668195151
H 3.1016935538027623 1.215562187070229 -0.14567546058775882
H 3.401698792061274 -0.39702940679722176 -1.7425498028878033
H 2.8079046472001115 -1.8580077525427827 -0.8073966872202818
H 2.011237343446974 -1.4499073819628159 -2.3437402783368215
H 0.10842548705995586 -1.6678069506843305 -0.4176559036328379
