30

C -2.824810829091616 -2.309079783371056 0.43399986017094333
C -1.9096443311185942 -1.5611921616401183 -0.4924497508718362
C -1.7851806101071024 -0.10012688383797001 -0.12073901001628909
C -0.8600991776429827 0.5264213968084906 -1.1045896326495388
C 0.4440808576582186 0.4953378279700324 -1.0127663536662581
C 1.2075087190456764 -0.1665992495480865 0.08209422022513688
C 1.64477585224087 0.8663498575499448 1.0272391791457198
C 2.9606189842197765 0.9022266417429043 0.9922329331302574
C 3.4675346814595844 -0.07545394288041293 0.04963734803484489
C 4.902193548706864 -0.3598025475392806 -0.29167910325693364
C 2.446487506236443 -0.7078389026529033 -0.489698242760368
C -3.1252977804542525 0.5899197096142381 -0.2685333523146092
C -3.0776164501373455 2.037669166501772 0.08232056275333514
H -2.4382657447572527 -3.3281091668875793 0.6159583987239776
H -3.847146984415402 -2.364105093195114 0.008913611476717214
H -0.8984225988173012 -2.026509446254645 -0.39390808649632547
H -2.204965334653926 -1.6760413221137473 -1.5472756547435902
H -1.3468733097376229 0.024800363191918154 0.8682316720229143
H 1.0185550330532056 0.9874425042982005 -1.7903129227562393
H 1.0021247699274987 1.512916054440092 1.666623633963447
H 3.560949965835306 1.5818521022272303 1.5977859616726595
H 5.558030256091098 0.3037678704347055 0.31332109308446954
H 5.162750214638741 -1.393988930424534 -0.017212310690453703
H 5.038159062099061 -0.13539297791269272 -1.3594499005210858
H 2.4698644564344696 -1.506123658351081 -1.2389680192361197
H -3.8285625650097117 0.06422942786170124 0.41868416233962213
H -3.510707998607677 0.4454499787844869 -1.2955479639888647
H -3.9961113377129722 2.401121161634863 0.6085422674849951
H -2.2224781616603364 2.3293723076203494 0.6963258168878783
H -3.0074506937228738 2.6414876959284364 -0.8656551145681884
