14

C -1.4094070987667366 -1.5908293914482456 -0.46940149370129913
C -0.7652104109421933 -0.27454680231815365 -0.19335317170996288
C -1.4640967478609055 0.8406215565358023 -0.28146175936290485
C 0.6626765921689881 -0.27821964050391906 0.17404428392994487
C 1.6019945267941853 0.28076546447897116 -0.9085610857561996
C 1.3909282383421155 0.9783557215593603 0.4630497740020934
H -0.849788243104821 -2.428279631368667 0.031131694704290405
H -2.4382864514944145 -1.5773117282478941 -0.014954166270897925
H -1.0219823817966955 1.8010701036485257 -0.08726053596714188
H -2.501913982449158 0.7946201939471018 -0.5537592517458159
H 1.0139201355668923 -1.1888225589609611 0.6776953582375546
H 2.574445214216647 -0.25405598271829666 -1.03878347385371
H 2.249680820501311 0.9237000347630715 1.1635722670723574
H 0.95703978862864 1.9729326602001616 0.3682601052505801
