17

C -2.3845936873056544 -0.787758251181772 0.4225741414816601
C -1.2320711970765683 0.018181504282265715 0.9551751400520079
C 0.029206360315267337 -0.7693748639472129 1.035903943401984
C 1.0355603717143123 -0.07978902235162284 0.50810633076586
C 2.466601322857164 -0.4721332602991711 0.37448462356201495
C 0.5510909919555192 1.2427276177825397 0.01871473251964469
C -0.9492110326445218 1.1493361086260643 -0.011066003503205355
H -2.642621791099053 -0.5393789774190015 -0.6269480442661945
H -2.1900799103706414 -1.8791519239138814 0.4585306638676691
H -1.4837042070083812 0.45216927343094837 1.9639899272662473
H 0.08220602577726814 -1.7608933559026991 1.4699111008842516
H 2.708362599649474 -1.3970457848916817 0.9264170751349224
H 3.063051718032326 0.40053232944338796 0.7483886405441379
H 2.7351273864821564 -0.5529965209469482 -0.714781674571811
H 0.9235437212202089 2.069571711411182 0.653787979453459
H -1.2425396741490187 0.8330298816505002 -1.0330426198838494
H -1.4699289983499486 2.072973534227058 0.22903942964640592
