18

C -4.1801399696865715 -0.2662062886726274 -0.17621469135874376
C -3.0386343169037615 0.6369825710530638 -0.047949980409378506
C -1.8791021585415502 0.1385664787099366 -0.3820980680184293
C -0.7462509435240661 -0.4655137548919594 -0.6501407744331744
C -0.11865734273007918 -1.1339045057690118 0.44241266490572034
C 1.1826695574566048 -1.0031856123120146 0.6408934854347761
C 2.0061106027776896 -0.1591276905837183 -0.271128317912195
C 3.434362506882645 -0.2711493834562283 0.08081465983671567
C 4.1793932801603075 0.7627249472711446 0.46955472652098923
H -5.16522859835359 0.2577565834162561 -0.10992591017141544
H -4.15160702922549 -0.68472115588629 -1.225227328682504
H -3.0013360810902756 1.6358042401891633 0.2755695274337745
H -0.446548358269532 -0.37516674473863504 -1.6574344060249016
H -0.6454278492204331 -1.7735044824555646 1.1616510572092624
H 1.8374042821329377 -0.4950982845522965 -1.3338366969929638
H 1.7237848491135015 0.9137755353729882 -0.21674009801889466
H 3.779625582381627 1.7645244443243366 0.5533173260424155
H 5.229581986631997 0.5174431029837404 0.697735505888538
