18

C 4.126319747559904 0.9482868848058735 1.0359091762374166
C 3.0676637226678456 0.6077427905915558 0.037753483403166616
C 1.8961818225701157 0.1535873227471627 0.43764559800084096
C 0.8765042504273842 -0.17309077698191247 -0.5495716192093674
C -0.315652641176215 -0.6310676442489213 -0.22426222893019399
C -1.2827915915830634 -0.9341921426670515 -1.2915357963501006
C -2.6794664965541926 -0.5589303186379919 -0.9359822184404306
C -3.750598773888193 -0.657853586855597 -0.09283428714614028
C -3.8835390407640484 0.19826905240175263 -1.2692123102004431
H 5.113963738514237 0.6361626546272294 0.6259414735022595
H 3.966113321731059 0.40481699091203893 1.9804477089768036
H 3.3120216339058164 0.7519993285887568 -1.0093138332162896
H 1.7085888220268426 0.029845078866975645 1.4943821617636124
H 1.1557529613794941 -0.0156011588796729 -1.6025745171385715
H -0.5870610837038793 -0.7838917868196303 0.7946670452030205
H -4.207077064989735 -1.0642952547586246 0.8038745799630804
H -4.5566930736007984 -0.1857314003636357 -2.0868895282607247
H -3.960230254522068 1.2739439666731047 -1.1200449782862436
