29

C 1.426877023271459 -0.7834627526913424 -3.2248044670562823
C 1.3453768668399484 -0.2903013241214035 -1.8181924761219785
C 2.051926287350615 0.07597399891593477 -0.6846544284099395
C 3.378524330695285 0.22578640140413692 -0.10085781485011105
C 3.548541086622394 0.652855122983874 1.1450420462587019
C 0.6270965956605125 0.1361276599688163 -0.6768716415845711
C -0.06016305431415449 1.4790604470741027 -0.6473659095512881
C -1.298788308664944 1.2959342021049767 0.11576418877271677
C -2.1948622970004057 2.1794606271810077 0.3957001035119677
C -3.1144920957968094 3.091660062151053 0.467822956707895
C -1.3643502761291653 -0.0622666802804988 0.5167425716880887
C -2.3015555243188626 -0.7669681835212859 1.2424795874381789
C -2.20555873001874 -2.1047285319890374 1.5487454084321424
C -1.0950479092627783 -2.7831143032887513 1.0973471352944968
C -0.14615771244111275 -2.1040933115646254 0.3718003632742292
C -0.2553437147490359 -0.7715609679136817 0.0743978593291632
H 2.4584465851112323 -0.972967909635269 -3.5484344788526623
H 0.7363592626632961 -1.624308820910988 -3.351263809448652
H 4.288785544770628 -0.0007636229248621179 -0.6458499700386646
H 2.6496738718586257 0.890845695047259 1.724244880919494
H 4.497026259565965 0.7762939133787156 1.6093002086321595
H -0.22689477438374117 1.8046537980678454 -1.6902181353282284
H 0.5867052987749355 2.18028309142228 -0.08570998007424643
H -3.057825961816814 3.6871457289395755 1.3245852639539264
H -3.8513006688883973 3.228984202092862 -0.26003731432225463
H -3.1994280551718366 -0.2573522332856142 1.6179455881936975
H -2.965924984685768 -2.621664456599542 2.122758668478527
H -0.9703822796724844 -3.850752676275115 1.3143626624210785
H 0.7127373341305054 -2.7107591757298817 0.04522093233219783
