42

C 7.405121055829359 -0.34866973122948386 -1.8475644206889337
C 7.026196612039509 -0.5935463629337361 -0.4615739749195976
C 5.780998714597281 -0.9754343075805525 -0.25349254902082247
C 4.516831465188744 -1.2675348144162135 -0.15717353378717258
C 3.608558059292276 -0.10632110085148372 -0.021469095586927948
C 4.272045806498487 0.8884136554130069 0.8959356448195624
C 2.2368094237255605 -0.5397624655322467 0.4507776681922471
C 1.3243055721529768 0.5689746292755817 0.5824231549416967
C 1.368714199701137 1.7509756111000339 1.4223613379969415
C 0.2601035294197315 0.4997702016635563 -0.19295377546810946
C -0.8757741653856801 0.3668853278961464 -0.8601606004341226
C -1.9372431677602016 -0.32856301554393463 -0.16232071497501105
C -2.087127882273571 -1.745437379319375 -0.464986337163397
C -3.254516557910992 -2.297071381141999 -0.7184329004119336
C -4.445842160487937 -1.4755471245860197 -0.6992361692758566
C -5.728045521566567 -1.7214218712182954 -0.9053685689985226
C -6.529122444822304 -0.7797309873970588 -0.4350743645019645
C -5.732467841053894 0.4750776719943065 -0.46507253239054025
C -6.0378563250382715 1.3627834020002547 0.7182626330583027
C -4.335025906406479 -0.06641798239671705 -0.4028885712117343
C -3.160149489099305 0.4608339999513247 -0.15341275304570914
H 8.266270446107328 0.3798950407894989 -1.837287997859992
H 6.557226292005119 0.019136448034692416 -2.4312614594544795
H 7.590552468248997 -0.5143259132018819 0.42362056576589396
H 4.288040519528742 -2.290852448304915 -0.1884081798958146
H 3.508324391679423 0.34121808161532835 -1.031926248047469
H 4.178342368546226 0.5598548303614225 1.9425683772614188
H 3.912169821234607 1.9130364637995505 0.7983457948907113
H 1.8992622598262223 -1.293332115497396 -0.2893270444909294
H 2.353107106692469 -1.0542232950382318 1.4571829694736274
H 2.0587355699155707 1.5847103855188696 2.2726706890321524
H 1.6668700693384408 2.6884748414987896 0.8721866019179787
H 0.3961908683113501 2.0146889234922005 1.8904652082330506
H -0.8133631717281111 0.8015054320062229 -1.8134295917535685
H -1.2112818420014264 -2.3836554089855113 -0.4859572267061233
H -3.3699554390084203 -3.3536187260506125 -0.9445840572207782
H -7.53453264871248 -0.8490530048085849 -0.0947268228314073
H -5.924735992128086 0.9737107591770764 -1.4346738111244441
H -5.115856177800085 1.8404029592009332 1.1073267668023061
H -6.577270658315217 0.7986421268578034 1.5043766747434975
H -6.7104846306316 2.1732305529459377 0.3790620975143095
H -3.094124597745537 1.5222980914414668 0.06771418380878819
