29

C -2.9951611111848013 -2.5697659606462393 0.23562783629881362
C -1.6460256424840856 -3.098764701451549 0.16281287221762739
C -0.5748692931978808 -2.387561073306848 0.023225524432542888
C -0.4172265949704613 -0.9521125938515143 -0.09352599569561271
C -1.4683506189280104 -0.07477484662257665 -0.07062110020481215
C -1.2727211668504863 1.3110541998754 -0.186857773388953
C -2.432797674868785 2.179196914447935 -0.15436545716298575
C -2.353875047248371 3.4809544774162893 -0.2548751003079803
C 0.001044830450164273 1.8225474884961146 -0.32843680574119577
C 1.0686764908811466 0.9410363524035851 -0.35239854011609284
C 0.8840883241209192 -0.41363770707043324 -0.23931826304430132
C 2.0465960365069087 -1.037195577418781 -0.2897094042816802
C 3.1138451069121857 -0.02407743633966068 -0.4505955823034107
C 4.129964744374036 -0.04504848269030839 0.6465543821897695
C 2.348219996665084 1.2400889821387455 -0.4790819944020954
H -3.7096478789756655 -3.0049967057079208 -0.47548833026353016
H -3.386459037416878 -2.3617716496644157 1.230080247879528
H -1.5652562892162716 -4.209904728333689 0.2364820830522513
H 0.37230341234212766 -2.9805854756673558 -0.011875218545295793
H -2.474338735635789 -0.3935591988696304 0.035025080143194824
H -3.409505629229186 1.737803123604491 -0.042339590452393036
H -1.4091284787028304 3.9526574766445997 -0.3664846046201863
H -3.2625291358322888 4.090542881850818 -0.22434807883846958
H 0.20461375263327897 2.8725264111467137 -0.42106115253708015
H 2.166457398796439 -2.1209679684341745 -0.2212056895927458
H 4.362954928562862 1.004491973493596 0.9642604447745529
H 5.0740314242734055 -0.48292506597972423 0.23823600193244931
H 3.7898923987358972 -0.6779381993805176 1.4772807897557787
H 2.815203489487354 2.202687089917183 -0.5869965811776123
