19

C -3.9850374270412914 0.1313973655599611 0.9779543862556367
C -2.812462968839408 -0.017566689821740235 0.008066450118350282
C -1.729355359358172 -0.6815654841826722 0.7229985594569582
C -0.684384263355559 -1.0154905764265107 0.00548527523983149
C 0.3611936357089464 -1.2117252826239 -0.7809304815516728
C 1.3089524181458565 -0.10962148716222374 -0.8598771060941621
C 2.427943270281131 -0.37555034315040153 0.047690783852810024
C 3.438513156132944 0.45035078980471144 -0.03339576607213146
C 4.421494619423596 1.3250948523755746 -0.17206610317047732
H -4.900595522534982 0.43271649087245845 0.43391567051320423
H -3.679099595238931 0.9310362597534673 1.6958908485184174
H -3.1986455230771216 -0.6661383143776752 -0.8264818718861923
H -2.522567677473921 0.9688174375437202 -0.3849254322422844
H -1.6402893200369204 -0.9438470769279571 1.7421721929044398
H 0.3510195686492398 -2.1554473581771387 -1.2431588819777257
H 0.8206792620916861 0.8608606040528236 -0.7255099577037628
H 2.5397098857064866 -1.143390438362887 0.7646624067566125
H 4.335673744613268 2.171638669176214 0.4472685634619711
H 5.1472580962032115 1.0484305820742097 -0.8824370390703224
