18

C -4.030813137413911 -0.5536099390837672 -0.16450572649677622
C -3.2064950264590597 -0.19025579292994 1.012685966015406
C -2.0073077082115893 0.3592961039614275 0.906373450314412
C -1.457837481330144 0.6254364907276285 -0.38577500975184736
C -0.1905643974430853 0.31983900798425724 -0.5348915743618364
C 1.1150335918688696 0.11356913524343504 -0.5628449286845442
C 1.9496708637841376 1.1965574314746226 -0.1706606130083368
C 3.1155472384549436 0.9466330885901407 0.4010772491004195
C 3.6336571966505233 -0.4037900841200248 0.671961274468136
H -4.551083140591204 -1.524951505529043 -0.03416449087634318
H -3.3172772908257118 -0.6713078287428242 -1.0224410142279794
H -3.637114809067544 -0.39837918933622346 1.9869063633513189
H -1.9013320753687668 1.032373380441099 -1.253204790996057
H 1.3655507021971764 -0.8575964099785499 -0.8813075689953398
H 1.6895304329677825 2.229224813034077 -0.3114921572659313
H 3.39286651831366 -0.7819237660756558 1.6825697615683333
H 3.279353323123901 -1.065282605918374 -0.14428045696224812
H 4.758615199349988 -0.3758323297424039 0.5995907721341106
