44

C 9.75509365860152 0.6189394413817011 -1.3535922571094856
C 8.5722640326467 -0.24575601793553012 -1.2932030699157029
C 8.234577293908519 -0.8579987596775508 -0.19216978868296358
C 7.77252089872687 -1.2057984510907291 1.0009776723658266
C 7.038664135979296 -0.18919179788819884 1.7439187179649789
C 5.7027541582432235 -0.10136185644823476 1.6865671816078602
C 4.978750017704099 -1.0351450079571651 0.8706869353285409
C 3.6783795777393475 -1.0084715857469553 0.7677617539065743
C 2.8649862704186537 -0.0523504535441279 1.4543674744691928
C 1.551080058225221 -0.07239812671287345 1.3101462203048122
C 0.776503654016744 -0.9763841092206165 0.5097082009131096
C -0.5318300793249764 -0.8658655627420279 0.46786527549481227
C -1.1658014782739692 0.16485270778345337 1.2291789393435149
C -1.9784447063236306 0.9468445795119338 0.545491420780328
C -2.8420742901235503 1.6314224109946889 -0.16201038496715472
C -4.192223719087718 1.1282645521345773 -0.15749927349485654
C -4.773129348644263 0.5133401472698769 -1.1697780059959566
C -6.1422403673093635 0.16321660138118857 -0.7578355024343972
C -6.513250519624907 -1.2271885684236283 -0.9386632482603039
C -7.578541544532544 -1.6141637869208192 -1.5950951540573572
C -8.514224476911176 -0.7478110378344569 -2.217760098446211
C -8.605092493384054 0.519882156102737 -2.323306990423867
C -6.256806431078794 0.6620170898573804 0.6173724212926389
C -5.112531994495872 1.2196186779662472 0.9482218146011078
H 10.399649881504033 0.47188023097661036 -2.220319712024335
H 9.543517887912413 1.6945139176412722 -1.1709559866716948
H 7.95963578989181 -0.3854642493962343 -2.1566504210914603
H 7.630090257074364 0.4976371828617018 2.3492940323816307
H 5.2365735553106205 0.6674780175605497 2.256196674869084
H 5.5732179172895115 -1.7914282477620922 0.31900842147695685
H 3.2181997262185065 -1.7560248007285029 0.13013721775980938
H 3.3204391149057004 0.7137376028581648 2.1045971894423063
H 0.9985247969234591 0.6948422927747843 1.8779603586896576
H 1.254277169019044 -1.743022751002062 -0.059478168104505014
H -1.0859265857125178 -1.570518030886707 -0.1501822454601974
H -1.097648417407322 0.4126590411250615 2.2503725331161406
H -2.434260567310577 2.47060623256378 -0.6492413220921619
H -4.287658327530798 0.3180201734784847 -2.1304723338559337
H -5.863692833540958 -1.982454216819635 -0.5001255640331501
H -7.780376131881544 -2.7091219359690655 -1.6818030667869228
H -9.438588533057201 0.9822856293557516 -2.86612505551688
H -7.908597227044624 1.225840492100991 -1.9106264742565466
H -7.092558980964363 0.624083617423794 1.3131578175257208
H -4.864200798292615 1.6884717364306114 1.903905849917095
