22

C 1.0915785636816864 -1.4193795705948693 0.6487214504725536
C 1.2792299947438799 -0.18186213089075462 -0.1649737496713579
C 2.5786284640270125 0.4573485711973658 0.22343759006182934
C 0.12079133403625267 0.7879133814652174 -0.06198278292880632
C -1.140576026454441 0.10971415789360017 -0.5460882987361544
C -2.2925890987900694 1.113572974323395 -0.4303032879940529
C -1.5199794903313801 -1.0880062032097622 0.25594579406440066
H 1.459556380635579 -1.2855924125356015 1.6822616998204099
H 1.5864519465127773 -2.2832305929303884 0.1502654938182578
H 1.3081546201681946 -0.5009705431858837 -1.2447720572927556
H 3.1465962397486846 -0.15732571898044428 0.9760040902830183
H 3.2353148731428334 0.5166320519526824 -0.6684301570059603
H 2.4398041378109685 1.5070970585172563 0.577090613207922
H 0.34374348439157876 1.611682235612009 -0.7817809123540854
H 0.008598746991644767 1.2413333217564555 0.9210943258221663
H -1.0626599183262588 -0.12988154402765423 -1.6203656072955306
H -2.5613951071395267 1.143934480077344 0.6429175252997873
H -3.113350439494356 0.7467422557069099 -1.0625602962359966
H -1.8847193359684355 2.0776583428093427 -0.8003052335113404
H -1.249447576153901 -1.032685976124504 1.3141515750435304
H -1.1320074778584668 -2.0251238814391805 -0.2245976599132256
H -2.6417243153742613 -1.2095702573925302 0.2142698850453812
