47

C -5.742653493347941 -1.9366884638193662 -0.31805162003467163
C -4.872861122452941 -3.063247371246705 -0.6780470476603755
C -3.6849204933988133 -3.0635672171397856 -0.10847129985746738
C -2.516503234856627 -2.9509326343712767 0.4431208303769359
C -1.542095411953023 -2.1683361149225275 -0.34085466998328423
C -0.8989973365243125 -2.9227712246153517 -1.4384532307350384
C -1.32962444032365 -0.9306449747742139 -0.004878174194531725
C -2.1087807695568004 -0.41286209965999565 1.1673787574804535
C -3.125148662512612 0.6325307311931995 0.7702813266048513
C -0.3831213197336718 -0.08650678929711685 -0.754160257351928
C 0.06555303763987798 1.1411064819793544 -0.6857259805629075
C -0.23607105641093995 2.271486845266068 0.2486088276854092
C 0.3785995328970948 3.421617023951339 0.05033486741235539
C 0.9890822927449395 0.968979188984504 -1.746112755763465
C 2.440613248089486 0.8171682858703497 -1.611580824229778
C 3.2692890373676353 0.9959363464748168 -0.6390463740554266
C 4.731783360809122 0.7720321330535356 -0.7626575526600513
C 5.289567936420814 1.012516549763578 0.4187550283869306
C 4.297828505688488 1.397983469314184 1.3843688568159407
C 4.566038070283494 1.7386295481403469 2.799925702616443
C 3.1061489084553275 1.3842893769797033 0.7474344572630133
C 0.2806598321621495 -0.3134246666391866 -2.032481966893669
H -5.6609224054234675 -1.6747721843611578 0.7775263189116884
H -5.391907512736994 -1.0401662184450344 -0.8717112991440511
H -5.03853833256072 -3.8755897670559674 -1.3195217877001673
H -2.384187493792036 -3.4115796279334925 1.3643673104240306
H -1.0486763950154194 -2.417110712042873 -2.393593509924671
H 0.1508566056517426 -3.153352710198759 -1.161493490832573
H -1.4577449227167933 -3.911443166663194 -1.5742439833222224
H -1.3962561086255936 0.04662423704988651 1.878561664487268
H -2.6823247076222416 -1.2403573881336754 1.611657912060774
H -2.931760938398342 1.0824855615130498 -0.21028919067812618
H -4.163490786106344 0.24403193310201735 0.7600405123044973
H -3.140012142115745 1.4747321823738548 1.5212958314887755
H -0.9008301962405253 2.2090423565255968 1.0668751762142474
H 1.0694810469890175 3.5107593417776557 -0.7669550888038121
H 0.2150141587310195 4.281459167022277 0.6788485532079074
H 0.7347749208674569 1.6843100297498903 -2.621109959493545
H 2.884913586239756 0.46494215930801125 -2.598882162030662
H 5.217330686937736 0.46950265069601155 -1.665644636131351
H 6.3643632221429485 0.9130309779118385 0.5725863320593055
H 5.246009429542852 2.6109423144511594 2.9127629784716285
H 4.992288890540166 0.8716325085601843 3.360701189074569
H 3.604361226627602 2.0073223216143923 3.3036881772963436
H 2.209686138630731 1.6216440241322372 1.2529248463668134
H -0.41803919342083984 -0.2698900047500512 -2.9147950412951324
H 0.9512248003820856 -1.2034944106882797 -2.0973834293080613
