18

C 1.276347725300075 -1.2458995903304169 0.8317922303669786
C 0.1744916389412104 -0.9896945705831218 -0.14524257129118703
C -0.12372447658550736 0.48089810639020947 -0.29450553710833144
C 1.0215925610126628 1.276856173988155 -0.7686623242426204
C 1.7113713987636314 0.8452008519796356 -1.811458260899494
C -0.6806436700792633 1.018505364323425 1.0120485537647064
C -1.9543464875846928 0.2641036185049013 1.3332466437052821
H 2.214257409022058 -0.7315615891930766 0.6297631435075108
H 1.4812223144517338 -2.3365981636767503 0.8314052388393086
H 0.48377739984651535 -1.417063913361764 -1.1255574570802662
H -0.7428997212125004 -1.4644645199319404 0.25883349692334334
H -0.9711195040708644 0.5633888411204512 -1.0301586029305685
H 2.547587599916219 1.4353586300324048 -2.1500715677755267
H 1.4675830653962767 -0.06871705799810462 -2.3288144139123736
H -1.0000768489786083 2.070053049610928 0.7829695331048457
H -2.4723562517098623 0.1205102628432244 0.3394114722541606
H -2.642873193425127 0.8693007821593314 1.9538580711680473
H -1.7901909349409688 -0.6901762705160995 1.826325343386917
