24

C 5.102941978324814 0.5627201058177076 -0.5685273670489438
C 5.043852296878744 -0.8787084761451766 -0.36318295531137973
C 4.02590984077925 -1.3237970123858782 0.34534858632709703
C 2.922976837109398 -1.6718765195778593 0.9678669352344291
C 1.7854834729152878 -1.9095348772090797 0.14599978446742146
C 1.0816041041123692 -0.9363073709886833 -0.4055861925791078
C 0.15327703022949812 -0.07000468683607762 -0.6879139627943911
C -0.6735901421104952 0.9284389860416102 -0.5945090202599715
C -2.1604759889946425 0.6736579042453477 -0.4294437846568065
C -2.792100473451954 1.784760727616411 0.224045310211432
C -3.999688764992676 1.990775454864052 0.5894470331178324
C -5.127653606038133 1.1287555267760514 0.44483336006956176
C -5.2205049806455435 -0.04245631176601659 -0.07413981430578058
H 4.154586337760089 1.0204146879275173 -0.9199216333884588
H 5.534236497595394 1.079309223401435 0.3074792653620023
H 5.689994482786597 -1.6465261237608928 -0.6926485544955524
H 3.043388780725815 -1.7248468242618828 2.0137265306817365
H 1.4706410277498645 -2.9263235815321758 -0.04496440183988833
H -0.39109299037815626 1.967897806497629 -0.6249959085539412
H -2.194488172254398 -0.30215792661394447 0.13415962174997242
H -2.6051335958167967 0.5314899628346669 -1.4561164520381211
H -4.237298531332301 2.9787417104502283 1.0979476764157419
H -4.4208058791164415 -0.61695999040765 -0.5180423366979937
H -6.186059561802192 -0.5974623949430529 -0.11363163963395877
