20

C -3.059575410469004 -1.460011027052494 0.03843372921658855
C -2.8271069983950063 -0.003292526355494914 0.11658287386651672
C -4.002280991103699 0.8630004733897042 0.3906735882473192
C -1.630401027839794 0.4961512265664191 -0.05019173003340801
C -0.48747280555140354 -0.34231282180831135 -0.3164210642561379
C 0.7272368810121439 0.14789889005582543 -0.48706120047133183
C 1.8748169575219038 -0.709535835475536 -0.7556415923951273
C 3.038552548572829 -0.39598552387773167 -0.25689397840212697
C 4.196886438258959 0.049235104927717224 0.10370158763015708
C 5.316993661022175 0.5899985812163402 0.5062340030623687
H -4.089693501976684 -1.6457735695703863 -0.3256747202784634
H -2.906385825064734 -1.8988655673914003 1.0334754116729927
H -3.7526786736087723 1.6884995728739751 1.086481355282484
H -4.477504622785155 1.2438874476063488 -0.540391508907379
H -1.4947916470566867 1.568795832324214 0.0135122877861004
H -0.6094824563697546 -1.413737823481812 -0.3823888656633289
H 0.8447688025592335 1.2196478977961147 -0.4202936545957733
H 1.7176849862035133 -1.5878576194937635 -1.3678728635761175
H 5.983886401110716 0.008160908765226498 1.1505472858221266
H 5.636547283959588 1.5820963789850646 0.2459577756198105
