42

C -5.96839094949732 -1.161188593268781 -1.5281430141287038
C -4.655140730214223 -1.7967003899241187 -1.542901854042882
C -4.090815043450797 -1.976126560210834 -0.37269428461986875
C -3.5701636049091254 -2.0426173995506995 0.825382507373989
C -2.81333789163727 -0.8877505153581363 1.238020628122237
C -1.4976940789189428 -0.8922461748039908 1.143295711461255
C -0.5030844658579191 0.12472015565434673 1.4834860198261386
C 0.8228118503449856 -0.3168371188470713 1.7429203032965843
C 1.6801442711538048 -0.11583359315629835 0.7546955476378773
C 2.45060853279224 0.15066948899341356 -0.2722181676344076
C 3.098829374016159 1.443789977646164 -0.2537987965954239
C 2.5204728184459255 -0.9046455043124956 -1.2622074565300558
C 3.932578681419615 -0.8876529392833827 -1.8644398209746453
C 4.923868853756534 -1.114560235695556 -0.8237180440063574
C 6.127524031151979 -0.6241754987153855 -1.043549773987816
C 7.29589598152605 -0.09905638523484224 -1.3519353996961396
C -0.7240439647690643 1.4251700818108928 1.5727199535360161
C -1.9060989852589396 2.2790934767248348 1.391116450243084
C -3.164148773029588 1.5476774738732115 1.223233104375407
C -4.057638822197891 2.1511731345969487 0.4552206026715437
C -3.6565804005198337 0.2348246339128316 1.7506196339267202
H -6.815907823137222 -1.8436311780125663 -1.4272458221227133
H -6.107697807043167 -0.35762517554351786 -2.255667950064911
H -4.072944666662153 -2.1410684979116614 -2.3552170608658978
H -3.772793203454035 -2.9381001334298196 1.3413696453753603
H -1.0995621589671618 -1.807401587542843 0.745839642349789
H 1.2753389597790556 -0.7777224971865392 2.5684355461183777
H 4.045990177351535 1.478659580215248 -0.8218996933546354
H 3.325375142515593 1.8066157801427933 0.7640922456493605
H 2.431779734288543 2.206424912068772 -0.7423245957830924
H 2.37148464315736 -1.9048139078509374 -0.8631200467253377
H 3.96337370996657 -1.637025340251428 -2.6747391234133207
H 4.043406105894749 0.10731195573955937 -2.354109900983873
H 4.83440674863184 -1.6189897759131664 0.09907725407573605
H 7.423921454097614 0.8995083358282334 -1.0285003768313394
H 7.940442318548591 -0.7502820705707953 -1.8802306094910388
H 0.1687105584698503 1.9802036974008328 1.8394595191139902
H -1.7305686194665972 2.8865967185780206 0.46680889488109056
H -1.9873051234536312 3.0269673394011996 2.2156127445663905
H -3.832112124118348 3.1083136643357285 0.008091670971029002
H -5.041943857204726 1.7389998532636175 0.23138689887584085
H -3.608990853540742 0.19001647034964525 2.857777267404398
