23

C -0.9618128312042696 2.101926707136335 -0.4611693274171372
C -0.40969325727653455 0.8406896998485044 0.09979453054032779
C 1.0392793058045922 0.6747056032791308 0.1772880076966424
C 1.6046652069773577 -0.40743635674116613 0.6587406513304209
C 3.0537137495317648 -0.6055329485045442 0.7504731404426712
C 3.7250263063861113 -0.8417246125294149 -0.5687812828465639
C -1.2550821803713947 -0.07703560117175276 0.5045637215319485
C -2.6995601870109054 0.15925495225420372 0.39579872057344434
C -3.388401807977193 -0.8671814237846776 -0.47474273565805164
H -1.5291668873180075 1.856045336739592 -1.367977728441218
H -1.5499357481172764 2.679858261974346 0.25833199474372004
H 1.670823570643468 1.4699922399857803 -0.1737432208774536
H 3.2516452727414396 -1.4390338717695632 1.4566308493346773
H 3.496037727434464 0.3028108829550791 1.2353803390242513
H 2.9778932582526805 -0.8965841377981447 -1.4116383985214387
H 4.385479082835653 0.00035353227873746946 -0.8171710885979364
H 4.29699962677565 -1.8049719429857385 -0.5933120861517386
H -0.8705712232692338 -0.9899193654135227 0.9105702851545112
H -3.1288098156810413 0.030708700377819812 1.425069238338441
H -2.960189082856051 1.1560049520354714 0.044040542748489925
H -2.907789413650153 -1.857383422055993 -0.3698138578017571
H -4.4428505345535845 -0.9221102408060007 -0.13935138863710556
H -3.3977001380971052 -0.5634369453045339 -1.5389809065092608
