22

C 3.967789881203359 0.23110193713267008 0.6244537216460645
C 3.0063313269841285 -0.8756378255844316 0.5163347815147308
C 1.9877655434248638 -0.7489105901738702 -0.2951753511844085
C 0.832994208050697 -0.4258011589578846 -0.8526569507653153
C -0.196811215961372 0.20009523345043298 0.015116896893852287
C -1.1572812911854449 0.8867340079499727 -0.850962484999538
C -1.8041431219033828 1.8896523995920724 -0.32555344538814707
C -2.4097739919551477 2.8853224291778385 0.28476111092573103
C -0.9740987108128315 -0.8818545212034612 0.7766092628370019
C -1.657714259374528 -1.8127242962781998 -0.18554349110593554
H 4.239139621543184 0.49267692391106765 1.664796744016671
H 4.926505751409846 -0.01725266720052489 0.10775747814508625
H 3.1600053345775367 -1.757364023593658 1.107370397381736
H 0.21578523664124713 0.8740085486358942 0.7705208490040653
H -1.405238327162941 0.6822433503560401 -1.8576731697101898
H -1.918320581590841 3.818965953567293 0.19624760267490288
H -3.3047446134687277 2.6178960322784595 0.7816063902497512
H -1.7401424033359427 -0.41844229459765536 1.4276097829128904
H -0.3004366359157601 -1.4617832079875177 1.4314761250789994
H -1.295086224458455 -1.5760317622660183 -1.2108160375796106
H -1.4091180517916337 -2.868045083739975 0.06097966098675107
H -2.7634074749176367 -1.7348493844689652 -0.1117345011756821
