53

C 0.1712851556792797 3.5976378512365255 0.6205566820147516
C -1.0167301349246967 3.1728495931506395 1.2966206709983317
C -1.7681267827112506 4.151313586814512 2.0269634428069185
C -1.290460753398518 1.9169626799095774 1.1638701240127125
C -1.9306604875673226 0.8058752001193152 0.9596133407732349
C -1.6181817937658458 -0.23211753364575125 1.910890819295607
C -2.877027055577835 0.5507940375668854 -0.06511288863892231
C -2.68866885348573 -0.5728167064678887 -0.9138164948170925
C -2.9078403187333146 -1.7423077348208913 -0.32321720107745533
C -3.25207935426104 -2.88503571983993 0.20776637887320917
C -2.140877284501819 -3.5656302471406263 0.8190007825191692
C -4.6417899969147225 -3.2457338065158807 0.08749415203066888
C -5.4855562721753435 -2.2750368459008907 -0.6783223625000323
C -2.3372652340987816 -0.703435307183553 -2.2892221959436925
C -1.1443042811327109 -0.631848658480899 -2.8375282158382436
C 0.09613925853915986 -0.39465889231547785 -2.112380225261558
C 1.201806791202207 -0.3939274643751365 -2.801893831650867
C 2.5429609912705473 -0.18117441033553822 -2.345727970565376
C 2.8580319512887717 0.04059781283196555 -1.0808414055902131
C 4.317738858253528 0.24304077616923017 -0.7881942757383918
C 4.798086285881629 -0.8085602605227593 0.14936347923566493
C 4.158359002203462 -0.7029595877618728 1.4679259668785996
C 4.628753595250175 0.13260303716683 2.3948232782773653
C 4.387264088349763 1.617059512063205 -0.16682752790727803
C 5.142593306243028 2.5428991077905336 -0.7316132742967261
H 1.0645785550815943 3.763824481737245 1.2313313136426316
H 0.05874941092811986 4.200544111065046 -0.28050974795638406
H -2.701746582713868 3.679373475975432 2.4357211767703872
H -2.1263677355727597 4.946568400763111 1.339310200772232
H -1.0069692012599571 -0.9986048897826284 1.4025585298279415
H -1.014151277815419 0.0865702600139395 2.798862820907315
H -2.5379074945165114 -0.6808338947436405 2.386133672841684
H -3.4718870633828236 1.3966555330822619 -0.4539099743857071
H -2.315318239340835 -4.674081619027985 0.7762689684811162
H -1.162232446918891 -3.4520687321567087 0.25972975073390964
H -1.9603942738409021 -3.35190073818567 1.898831141110925
H -4.8264628436236965 -4.269045177048926 -0.3473820776325354
H -6.556067380214176 -2.4725487145528158 -0.6284640060754147
H -5.3296193996235495 -1.2766838535428302 -0.16636786153880895
H -5.088549262311402 -2.1244614865767026 -1.7185774054334022
H -3.1860910090182752 -0.8877754742121828 -2.979836389334871
H -1.0752544778305928 -0.756311051148199 -3.919908983592264
H 0.05946425191180414 -0.2263854649334343 -1.0219349149810857
H 3.3436959933180774 -0.20838736516253029 -3.109820865836037
H 2.139816785965474 0.07779794221970056 -0.28226104166929156
H 4.892840931850058 0.2807700620702348 -1.7383214190890042
H 5.890472434452745 -0.8392344433133314 0.19146897908336058
H 3.300675868959117 -1.3004023890017062 1.698086683818437
H 4.143779165596297 0.1845492179734387 3.345815794585413
H 5.4995231734245875 0.7381937381202601 2.132101882260227
H 3.832859781517932 1.8464730706932486 0.723677536578172
H 5.211950623840709 3.5335488442858756 -0.3085830786248646
H 5.717161030250187 2.3474661358857243 -1.6342119331288474
