11

C 1.4525489129531983 0.6828432628923182 0.7557844154683485
C 0.6448359160328022 -0.4030880955998305 0.04583022281142666
C -0.8042215939245085 -0.28608251579597394 0.35321235667851997
C -1.665152987971073 -0.09101225016936901 -0.6194915854540971
H 2.521695774362414 0.4696152996505885 0.5020221332738299
H 1.1459272094858608 1.6434461529617963 0.33595462930957504
H 0.8140237653075267 -0.23829774150733485 -1.0378786546903276
H 1.0578213028113244 -1.3908240519692874 0.3134714819394846
H -1.104342065646788 -0.36737588125098847 1.387964731249885
H -2.7119364518923006 -0.006935122557093545 -0.39320128020608325
H -1.3511997815184291 -0.012289056654805479 -1.643668450380556
