15

C -2.4215515934915914 -1.0039123757084174 0.32301234934232015
C -1.6625464354320345 0.23779837111893004 0.487695413646237
C -0.2392652147330765 0.04556248578577784 0.09082466318854962
C 0.5956393244080034 1.260968906185303 0.22988704559778597
C 1.9076002865012338 1.1127687273811184 0.22775729243734655
C 2.5195101711620325 -0.2267764004688474 0.09055793099095068
H -3.4157801083194244 -0.9682308236532372 -0.06569796253175972
H -2.010094217102299 -1.9239903791194661 0.6694198081436415
H -2.0911496979319417 1.0238662384408292 -0.2020177408518148
H -1.6899430409790341 0.6689651267845091 1.523276901337623
H 0.2710121631711294 -0.7756022574203523 0.6001085452961498
H 0.20660421143057894 2.2614275823206995 0.33307971532941116
H 3.6030976652316267 -0.09257804794443655 -0.011398189656629533
H 2.1011878486470765 -0.745884638107742 -0.8089815055913164
H 2.325678637437726 -0.8743825155946726 0.9785690178335356
