34

C 0.6934425763127291 2.1819568429044103 -0.5797928685622109
C -0.21948447389565512 1.285694392356597 0.10008333149681874
C 0.1434682885148301 0.2837524045213136 0.8321709060818129
C 0.7520621416209196 -0.6662961403712075 1.4633532341152464
C 1.0046936894291092 -1.8495897997196005 0.7771508383401377
C 2.095720974649828 -1.901756659680342 0.02658462710693823
C 3.2492258687510907 -1.8523835616716675 -0.6058515975719724
C 4.412916101707331 -2.2632990118836886 0.1662974694067267
C 4.874736131241169 -3.6125591160186623 -0.34744747406900084
C -1.6230488764705018 1.4487064674042416 0.003839000299832417
C -2.255989144802429 0.9746210749276484 -1.0154509521179378
C -2.5404329997887447 0.4304708021736682 -2.196709697523183
C -2.4420643693657187 2.1201162541239382 0.975757871103747
C -1.8641345038536867 2.647336611474258 2.07103056512238
C -3.8459871303174906 2.279274190388603 0.8807285261874878
C -4.464542973259324 1.7995244353422175 -0.13878674656554096
C -5.372161837902068 1.4237578643461455 -1.04479864787758
H 1.5104044387976008 2.589799666228603 0.02970403915141876
H 1.0660971643010517 1.7460793880674979 -1.5498881002957514
H 1.0465512561944337 -0.5444755302479852 2.4625256765150487
H 0.47057455776481283 -2.7775742950943387 0.7287894208350528
H 3.1772966674563534 -1.516370726925991 -1.5993526288337372
H 5.266092735870559 -1.5666931943568558 0.013986947069932452
H 4.234270468383483 -2.339625194236761 1.244168607751066
H 4.248088377697716 -3.9542184582537194 -1.214831356785523
H 4.722533204756256 -4.385564747643567 0.43691749900312415
H 5.911435430859788 -3.592339422195169 -0.7242590969941286
H -2.4354207279693183 1.0978781876803023 -2.9915829421842557
H -2.8209100721957396 -0.5691610996777408 -2.080326347159289
H -0.8079442133879267 2.53416557870058 2.156937110629774
H -2.4361611460927013 3.139906038624296 2.79152558451907
H -4.474015063268595 2.7854623268644314 1.611422262175418
H -5.771820374128405 0.4797418168917291 -0.8367363822917262
H -5.505492167625133 2.1436626149650673 -1.7949030363429768
