19

C 0.2584598089058266 2.3336355823982955 -0.7840547550451117
C 1.0251144393220337 1.1710271100653935 -0.24852715836635755
C 0.14442341697882924 0.19443701802738525 0.5030968165640176
C 0.8863612150434376 -0.9505409450128748 1.0331489444106423
C 1.781662159711065 -1.6594644287022402 0.3886877150933184
C -1.008090741197747 -0.22094239351247866 -0.39683780268845636
C -1.928831839006091 -1.1925357429661516 0.2810650189368943
H -0.7071958552272666 2.5072624333630356 -0.27494534324409015
H 0.8548847016620058 3.2420829906865594 -0.9262902049362091
H 1.5521722240711726 0.6903782810217622 -1.0995700145692298
H 1.807747439845988 1.5270509547078552 0.45842346921627936
H -0.3088951516615202 0.7529471294024288 1.3481361871701858
H 2.257099095683066 -2.4858216098201913 0.9051980451752599
H 2.0961777392307823 -1.490398472307536 -0.6357649108861317
H -0.5865975968865639 -0.7235216719221609 -1.2999753412679256
H -1.5706735919238841 0.6474954765421191 -0.757852843870908
H -2.9662033175976803 -1.1316705322151406 -0.12531453650242116
H -1.5424848821762838 -2.2489374104213287 0.2513559925333284
H -2.045129264777191 -0.962483769334856 1.3800207222769312
