18

C -2.255448702404178 -0.69051962314091 0.2062709368285459
C -0.8773863930537048 -0.6738957179249568 -0.3910273340022076
C 0.02450832085412017 0.32698802559852624 0.33346303583011244
C -0.6392458680282884 1.6810668615248703 0.17202200604624104
C 1.373061623153708 0.41547403865079263 -0.34142738884562657
C 2.102169648553662 -0.8920551555121419 -0.3669734378336852
H -2.582816822281694 -1.7012642583290454 0.5170473504682822
H -2.4355845121101067 0.07064132834550005 0.964510175089822
H -0.9831043708887424 -0.39934283073118987 -1.4680471625443474
H -0.4703067452414349 -1.6920781254179462 -0.360915820089568
H 0.07251172373344318 0.026435677057344127 1.3836280128092704
H -1.4207080617595838 1.8395475399165822 0.9318091526174846
H 0.18050641456850688 2.437704425135331 0.24273660623480406
H -1.142933038145428 1.7294731710223719 -0.8285264777489703
H 2.0088251867966034 1.150835050218828 0.18498999839810207
H 1.5238579542024406 -1.7254674723273178 -0.7886277642295222
H 2.989539332591117 -0.7596828113490007 -1.030780638227135
H 2.5325543094594565 -1.1438601227376928 0.6398487491984025
