21

C -2.919522300332799 -1.6009011396753616 -1.0055415435698314
C -1.9869343236147314 -2.3630357075665236 -0.11970477563847391
C -0.7283967792602858 -1.9547654619488215 -0.07395745902408532
C -0.2595828920279408 -0.8381190767970162 -0.828739894926468
C -0.6497164189627916 0.35156828759056047 -0.40366187595685243
C -1.0165963319070457 1.4886977014683955 0.1545424079814382
C -0.1371028643702952 2.0021257872762988 1.145994293358713
C 1.141008624924868 2.0642229018031797 0.8124444703978658
C 2.388535324103976 1.9992703801714096 0.418487037071342
C 3.0828559892432432 0.7509816186586139 0.6963554299296872
H -3.850087841990382 -1.373607280804961 -0.4355082122537005
H -3.248759629519301 -2.2322525373410986 -1.8653283003634158
H -2.3568284179323875 -3.2175012480730802 0.45459325170599896
H -0.07348013471919944 -2.5362292662074704 0.585155370778629
H 0.3559856336684677 -0.7870728707513669 -1.6822019254291616
H -1.9308860341085736 1.8585420300600548 -0.22467154329182598
H -0.31673482030912115 2.351355647930271 2.124790167730021
H 2.7328105563163088 2.8829036653518347 -0.06157059356012228
H 3.2187958970797 0.5228852574718271 1.774782994483643
H 2.497073819643654 -0.11401880109443745 0.2735427313656508
H 4.057562944060881 0.7449501124945374 0.17832723164366812
