26

C -5.804317532115061 -0.04614462880801222 -0.03265728555549931
C -5.254311185284909 0.5846739489128481 1.1586279264454602
C -3.9574551306479964 0.8407110398013943 1.1375965967666188
C -2.6633725301378477 0.9616965572780312 1.0460665090866037
C -1.8899019318583772 -0.16966062459016074 1.4936613217635508
C -1.0610157830102094 -0.7770818668979756 0.6601409682681533
C -0.9232655662043114 -0.30254568552162975 -0.7275006036708535
C 0.23847454912865595 -0.8114610580376138 -1.427728706465649
C 1.3288691900924166 -0.06122377202220703 -1.3846552485118129
C 2.364203453520439 0.7184258515813005 -1.210725596543361
C 3.155281437516534 0.4412773258478691 -0.04633064293805355
C 4.425569602207973 0.20060625543528757 -0.16348155294626224
C 5.621842249187543 -0.2079960241612948 -0.3778685512816179
C 6.903466916586483 -0.46464669392196045 -0.4418756442399563
H -6.091128116589731 0.6428220012618278 -0.8384298601025172
H -5.2448941469228885 -0.9173695558790003 -0.3972369474409023
H -5.715604604586902 0.8810288765796568 2.0594683165988372
H -2.3359270017413025 1.8852295834230914 0.6485917628723772
H -2.00287013967923 -0.5140086316073635 2.5343847803526356
H -0.4937960670012295 -1.6307944218823571 1.04055524224216
H -0.9678693644076722 0.8002808246205754 -0.7648963501067065
H 0.3750380395550981 -1.6977770829942425 -1.9799613502913151
H 2.4812105461838163 1.4557914140489576 -1.9555925937173253
H 2.6765381349683497 0.4372234505300549 0.9190866979402383
H 7.293519442003777 -0.8821046761250659 -1.3643851923972874
H 7.541715539235827 -0.2584206206425199 0.41514600386905093
