21

C -3.2614623468803554 1.4814864810401143 -0.6571447537917269
C -2.478203957935494 1.0429345761392315 0.5611997729579655
C -1.7895730702363741 -0.24092137272008599 0.31190430937119196
C -0.49859009275054306 -0.3895551544643277 0.3764188631128932
C 0.10447935388355652 -1.686400570616779 0.11745462520657698
C 1.4048342242863343 -1.8710260973969757 0.1742051963116979
C 2.2653911101630224 -0.7173732047204248 0.5122583696597677
C 2.275329628933113 0.23476090100393018 -0.6331021122689177
C 3.2269134958463073 1.1285858324753368 -0.8158848934740921
H -4.320891333805024 1.1597410964640635 -0.5677204577233879
H -2.8386973695036986 0.9727591249039799 -1.545265640446804
H -1.7886025473891678 1.8306404143184125 0.888027137975998
H -3.218433375922307 0.8661551102676006 1.3770318847343321
H -2.439571330107759 -1.0912201867928355 0.06152654260630253
H 0.10719129015691768 0.4790089597868708 0.6276833903669964
H -0.5491909973808867 -2.5088683283068223 -0.12665644876710833
H 1.8090033922528526 -2.8451089815972637 -0.02405381491235812
H 3.284638184117118 -1.0582666398841694 0.7768081378329836
H 1.4652389253247329 0.19878792572254234 -1.3567107599386117
H 4.064185717890595 1.2247838955339223 -0.1395541485929915
H 3.176011099057024 1.7890962188436657 -1.6651881341257369
