13

C 2.8384024065121167 -0.032783724396246494 0.39010096562854885
C 1.875648309072133 -0.6506819912977826 -0.5557316153381932
C 0.6287506648810989 -0.28268366014053575 -0.4633178963835386
C -0.6257668652842847 -0.07579393132957518 -0.16679632212023215
C -1.9059053883418773 -0.38883763031205115 0.5476295634143946
C -1.8024107993614498 0.7345630099892299 -0.3716328954782309
H 2.310682143658559 0.16359000574874288 1.3659836656345552
H 3.054505165665233 0.9871453335387224 -0.018267831319573054
H 2.103939812841886 -1.3706772762973558 -1.3082430807903547
H -1.9520226275665498 -0.17964156984700638 1.6419353743628236
H -2.389808370972081 -1.3262329476748265 0.21412915382799053
H -2.289568055599005 0.6611254257152066 -1.349483235000647
H -1.8464463955057162 1.7609089563035518 0.07369415356245385
