15

C -0.1741848458356326 1.518722476152428 -0.5333119783972448
C -0.47819132806938575 0.15270565169071335 0.023889545392206953
C -1.8001567353769272 -0.39288540604412253 -0.440441098814059
C 0.6021155927045632 -0.7790120453843431 -0.46124216121676254
C 1.9776576369688033 -0.37793293019496366 -0.022396131157917054
H -1.0480315518533236 1.983871910339399 -1.0259539617913598
H 0.33951236865789036 2.157260298622384 0.18789813266493344
H -0.4876922462785104 0.24208105877833214 1.1392878045101449
H -2.5766183533412104 0.36838584294135773 -0.5825139049569501
H -2.181732825278022 -1.0798501557599656 0.36648243035125777
H -1.6777225799166724 -1.0622044712999137 -1.3389544325040261
H 0.4082780584106765 -1.8174751208257154 -0.11678637116285641
H 2.3688940504855647 -1.016366526139058 0.8192230711050745
H 2.0614235478107314 0.6886901940327618 0.26854504560623216
H 2.6664492109114484 -0.5859907769092996 -0.8842677084921335
