24

C -2.6868275103752115 -1.9478946413964786 0.4227594347967153
C -1.8615054216210045 -0.7422716737518739 0.13196153609880037
C -0.7205506830205511 -0.8767138683748025 -0.5271257889933676
C 0.1968708900541523 0.24056359534180544 -0.8822316660530595
C 1.5931206397034507 -0.06130093835803894 -0.4676448497133642
C 1.8069769877776862 -0.48494869181396116 0.7467733382420596
C 3.0960749685332174 -0.8211299880958562 1.3048383652107851
C 4.184232916083996 -0.7145268501563324 0.5853888005235964
C -0.22878756348424925 1.5720161004985067 -0.39972924981895785
C -1.7190243763192763 1.71202146065272 -0.20288616776433566
C -2.3238533232749696 0.6073875413423163 0.5843393057317325
H -3.35564090619864 -1.8057292319981486 1.2902609022827543
H -3.165280313884833 -2.373483496011854 -0.45848647817088456
H -0.4669436121874906 -1.9175059835792778 -0.8177182064706615
H 2.3598755799396915 0.09236428324682854 -1.2140796419914623
H 3.1576510047694297 -1.159668442505463 2.3149214324500544
H 4.195982817112065 -0.3781952438512752 -0.44456329072133666
H 5.152826146457812 -0.9670735471413084 1.0045651969137848
H 0.06998471064208282 2.3867856954204347 -1.099164097087352
H 0.2790768971799207 1.8079860873964202 0.5719485646781545
H -2.16886385153513 1.7745965837817865 -1.2183507052587415
H -1.881197464391967 2.6689713187871424 0.33532276213308887
H -2.076175433564034 0.6943137231458828 1.6596652882018437
H -3.4380230983956728 0.6934362074209737 0.4819215895104305
