19

C 3.8183959328060415 0.848799798427773 0.07421253381965652
C 2.6685879906598733 -0.06750794365384301 -0.15089873730347977
C 1.4579407476608783 0.4300151051594006 -0.36998137868306885
C 0.29312142462137686 -0.4610510377837227 -0.5975672419736162
C -0.2685432815212362 -0.8963853666345003 0.6997048032108841
C -1.557986736390636 -1.1464886818676148 0.7951856468322153
C -2.4223180542708618 -1.0032310634130324 -0.3368921398458752
C -2.794268097021249 0.22835454307591244 -0.6312807066914549
C -3.115428709751413 1.4723068513950865 -0.8525110235127921
H 4.654042181768032 0.32214551609509234 0.6060739217188966
H 3.4785647958208186 1.6770452344952724 0.721502346345983
H 2.8008245734499 -1.1407182837788428 -0.13947230277172185
H 1.2685662069642303 1.4969641313131627 -0.3921258827943101
H 0.5793223846784328 -1.3641745112751076 -1.155352636374105
H 0.38132475995031656 -0.9993843868210459 1.5326849481899298
H -1.9888973338589058 -1.4697137510957816 1.7490642423631684
H -2.8168086085022876 -1.7334409400314121 -0.9847128529540862
H -2.4491109443317782 1.9959603682020537 -1.5082900646261581
H -3.9873292327316023 1.8105044181911187 -0.36056818378772165
