17

C 2.1793765066020994 -0.9903234690976286 1.246815465788395
C 1.3423369645892536 -0.8720506915407568 0.004910662030742856
C 0.6209745314701647 0.41930144226188726 -0.0798948146284481
C -0.6971656670646031 0.4463689671402318 -0.1370198877059996
C -1.3658210173004905 1.7884694296704282 -0.22165808066329504
C -1.519231313820853 -0.8116771648919102 -0.1192208037254294
H 3.089298427177441 -1.568967305524706 1.1364991011561794
H 2.277734807468171 -0.04331146157718988 1.7999306254631464
H 0.6173900429932572 -1.6989131665150181 -0.023078678329569443
H 2.055712455650157 -0.979538860036111 -0.8643858316057804
H 1.1933776984904663 1.3278155271176786 -0.09369535703469385
H -1.4693304749022478 2.1590334618610276 0.8142833374159447
H -0.7365638351410552 2.4325334378296253 -0.8339520473418905
H -2.3399025503247244 1.6802347870649474 -0.7233445374358327
H -2.552678861910127 -0.5222058497655871 -0.3427597767239535
H -1.1867931538745444 -1.473182783630037 -0.9447745086901989
H -1.5087145602216565 -1.2935863001376957 0.8662401821382573
