48

C 7.643425172845327 -1.4265530258861154 1.0306334284836876
C 7.064302871640904 -0.21731280703686517 0.3839206402636026
C 5.906830488875236 0.2852122726689868 0.7714658103326374
C 5.33955364083888 1.454754433001041 0.15109640228894597
C 4.179842979078442 1.9469714668595843 0.549167353191001
C 3.466047118691325 1.3178525877848684 1.6121242086727388
C 2.416614749645012 0.6006231398881487 1.2542136329156803
C 1.3317976315207778 0.000742467637046651 0.8032521385071391
C 0.16201211838275195 0.803314285178057 0.7187752945854128
C -0.9741604429911046 0.2179060244189965 1.038574962719508
C -2.0556045208167015 -0.4745800288641713 1.268171157716352
C -2.6343874038466812 -1.1382104954851038 0.12054037289580607
C -3.6639114124889955 -0.5225634814160818 -0.44087358812523453
C -4.220382217507354 0.7106585619091942 -0.002256553541135782
C -5.543160258010505 1.005213977653726 0.545319257419529
C -3.4320528363253 1.7403278620037037 -0.1085871204310558
C -2.6869418361155946 2.8077563008374775 -0.33896006723825356
C -2.8302263270445422 3.4425957245280885 -1.597280031878823
C -2.107164603466435 4.528725896818837 -1.8991459155699595
C -2.166228156581407 -2.3842663786655844 -0.42092338400569995
C -2.844122943505159 -2.96539963915881 -1.606033806477725
C -1.145224187031932 -3.0345855809600155 0.10361504494003167
C -0.6682607768422495 -4.318847762304309 -0.4600897280034386
H 7.906227111087181 -2.1486776707098576 0.23236850870502176
H 8.575391574405376 -1.1294732751261964 1.55881139385053
H 7.5906580758193165 0.2784087046420141 -0.42803384751834067
H 5.384170444681982 -0.2076612212383156 1.5783425879411317
H 5.884249998943254 1.9355677527295811 -0.6606642620664872
H 3.7752158456800102 2.838793896797437 0.056061210016498754
H 3.6241744235751723 1.3204861316130518 2.6540382317441114
H 1.491824429866619 -1.0127638449671676 0.5626369716543625
H 0.04606613431118743 1.8134839006611732 0.4348861417205492
H -2.368785578531437 -0.46130165076007346 2.269540011367396
H -4.136114870043203 -0.9923788971387397 -1.3182481058405124
H -6.045750080873759 0.05064401785115995 0.8022557566193874
H -5.443552014906098 1.684341666999672 1.4211573965103967
H -6.122655438160979 1.545086307328529 -0.24412910423049877
H -2.071267866232152 3.039061871635107 0.47936340895544555
H -3.50886478370766 3.0952894481124633 -2.356117986007558
H -1.4032124426872403 4.923737953751765 -1.1657303604940448
H -2.2388673735118068 4.985900356856104 -2.860003791051351
H -2.4395118930565896 -3.9528796385395064 -1.8977393602112593
H -2.7621821577673304 -2.2839106506042306 -2.478355600468216
H -3.935309358160071 -3.1105384873931348 -1.441913728981264
H -0.6630985058582711 -2.5997023601504465 0.9630772887831396
H -0.2842532632625406 -4.179864950621642 -1.4978322199305463
H -1.491665983893783 -5.086385912586349 -0.4945685190187178
H 0.09851472331645532 -4.725599250553357 0.21251805241768223
