13

C 2.7948311177497853 -0.3417356472660672 0.14743431150194014
C 1.5532075543646786 0.29856222260117793 -0.36960329943675463
C 0.39201516664816466 -0.19450380602844333 0.014415672332413898
C -0.9180419333938907 0.34925568204578455 -0.4263879970749389
C -2.0323606302273003 -0.18548855092487546 0.42787486463023955
H 2.771867175545806 -1.422430851941018 -0.0780489554838819
H 2.7729005462754857 -0.22347116856751875 1.2672564565557167
H 1.6886483016365836 1.141051885001074 -1.0381218056038106
H -0.8858041852790958 1.4622206883132256 -0.41529846397358566
H -1.1147374436115407 0.0500270604369898 -1.4734009720479186
H -2.816906088306785 -0.6948975981156561 -0.19572737163065507
H -2.524060522606761 0.6638614190056056 0.9384734734746206
H -1.6815590587951992 -0.9024513345602921 1.201134086756639
