14

C -2.6298457958779333 0.5731687721976698 -0.30657627680756877
C -1.4174602876688345 -0.2801970913344668 -0.5799265063278061
C -0.5752998053678383 -0.2857906489681417 0.636180984719087
C 0.6414426902868955 -0.7920307690063989 0.48937433572560834
C 1.9234282097613937 -1.0100522066824908 0.28382599624304833
C 2.7432857103825117 0.13314606254776346 -0.1609758779193509
H -3.5788894670449984 0.06763902296748234 -0.4823993200580284
H -2.5597680497421176 1.5908520781710422 -0.6878391621272987
H -0.882193149241929 -0.002132731413562019 -1.4913706961242814
H -1.7937404723114654 -1.3312120605653974 -0.7305753068579077
H -0.8792522000936246 0.08605995551717852 1.5970608727237556
H 2.4900596467053893 1.0423961076578094 0.44301071431156264
H 2.7131540033634787 0.3159078506666441 -1.2419890931334063
H 3.805078966849033 -0.1077543417551429 0.13516220643807567
