24

C -1.495348637028504 2.493142715490262 -0.5320447952857094
C -0.3438879858572207 1.669470489745075 0.04051244001902193
C -0.2378216909893335 0.41034089681242736 -0.7782765913323925
C -1.5035466659739718 -0.33985749626039735 -0.6886862356644097
C -1.8057673051316523 -1.0319763507000481 0.40185375606993456
C -3.0891159253269302 -1.7919882930156363 0.49136874167702216
C 0.920528505094707 -0.4160068398058913 -0.32653670671247376
C 2.1565363673850224 0.34282261116921836 -0.47431518654064325
C 3.2527029044084115 -0.2527470084376325 -0.06449462281947461
C 4.305515537059232 -0.9196534609311394 0.36904598248707526
H -2.401202399778983 1.8677568908666637 -0.5324474499852956
H -1.6879408260122128 3.3943607237114493 0.0507227335807327
H 0.5583885525235044 2.309127319146418 -0.053959099726149776
H -0.5342898469796573 1.4784387264533077 1.1042049475230815
H -0.047129856929294785 0.7182280054426422 -1.8265376617259328
H -1.146127293595199 -1.072445849316567 1.254345625469021
H -3.0282978263641374 -2.6986654611166982 -0.12353934817624387
H -3.8791594418052164 -1.1401454672273785 0.05378511550943226
H -3.3326370198094373 -2.0274080164267025 1.5476237307179235
H 0.9392933705900463 -1.3947606765761795 -0.8411257528256797
H 0.7848247513742638 -0.6295620556246405 0.7679686521766896
H 2.3101354407154497 1.3104751667903525 -0.8650459751422639
H 4.777216192914568 -1.514073183091573 -0.36586377147552546
H 4.527131099516502 -0.7648733870974299 1.3914414721823316
