24

C 3.2052209006214785 -1.6058717512782652 1.7866098094556828
C 1.903817048560046 -2.2452783373330027 1.3794081160544427
C 0.9028877629238156 -1.5176909803939937 0.9398029883836863
C -0.3899164820179969 -2.0219579089859168 0.524240645517419
C -1.3046845279233292 -1.16216573753917 0.10213873679325709
C -1.0377266496602553 0.2818823481911981 0.04465622560101923
C -2.0625950430796167 1.0418219419832313 0.7410479368850207
C -2.3325093183870678 2.23649951890488 0.2736433003743792
C -2.5531946482608845 3.4113799115622503 -0.265333122191966
C -0.7580250430216436 0.7277209090337661 -1.307433352122934
C 0.49471790338196986 0.7714986483161131 -1.6892112561197563
C 1.7809443065037263 0.8203099174964292 -1.8821773857857784
H 3.951047740503735 -2.4113800805995957 2.0112420352276126
H 3.0233231313161286 -1.0993837004802116 2.789223519005257
H 1.8096786709983834 -3.3091266187078223 1.4550016979403018
H 1.0786799142126955 -0.4334955284040547 0.8848710578737006
H -0.5778964822590396 -3.0829567036274974 0.566388037459996
H -2.2673127171693594 -1.5225465608886684 -0.213939943884852
H -2.63122325664875 0.7672322741093737 1.5845512649628128
H -1.9774334168209975 4.196511239954722 0.14490839015097418
H -3.2854393400321036 3.423186048768811 -1.0476122271152732
H -1.4302213735341471 1.036976789049617 -2.081816769978644
H 2.2584766707945474 1.7201925368720454 -1.5317609101886223
H 2.199384248154323 -0.023358176195491027 -2.3513471950606513
