35

C -4.120941385633689 2.412621638058363 -0.7087061076034549
C -2.915696623498002 3.0612129913464123 -0.19545023914407583
C -1.8577923400685372 2.5983799970991086 0.3442855954810701
C -1.390952076065284 1.2963455971299405 0.6773085089571605
C -0.17774021879640375 1.109550009619173 1.2648486082178823
C 0.03989615313432635 -0.3004855746271873 1.4879309630216802
C 1.1775938260424241 -0.7715359949887342 0.6746277858852977
C 2.1488266352416896 -1.1505356665121984 -0.018402579438115352
C 3.264400817999816 -1.5720480451153171 -0.8361422614276642
C 4.081412018535219 -0.41232543454360954 -1.277504729815386
C 3.433992419543529 0.6230723210876993 -2.1173230267931427
C 5.343557598891618 -0.32081051232505603 -0.9303949050366557
C -1.1644122572074496 -0.9663802960388601 0.9846238201999238
C -1.4419763307537825 -2.3955263878505395 0.979779536552295
C -0.5411511562354764 -3.2282287667162595 1.4790925330106066
C -1.9833676273968328 -0.015081850535485638 0.5160713139159842
C -3.3283206484047745 -0.32955382285722107 -0.08123838513881548
H -4.14102723763217 2.4821729331169777 -1.8203526072053389
H -5.038304490634884 2.8448013193133352 -0.24989544322625107
H -2.9930290238046178 4.205144563735135 -0.3320341622133578
H -1.128637534676758 3.458317231414653 0.6140194325441506
H 0.5443734641585012 1.8999444197617135 1.5398045536910239
H 0.20364171280266488 -0.5452952545140531 2.562939120928873
H 3.8712739152342084 -2.2835508993604305 -0.22179597525280192
H 2.9003371086536696 -2.1710303980225154 -1.703016992033008
H 4.11941445580761 1.0456111210231127 -2.8904219191431246
H 2.992869059641446 1.4428794386004244 -1.4998103579542392
H 5.994134790360491 0.5058463159493133 -1.2231551389606568
H 5.783935765449218 -1.094164620288475 -0.3235079995227917
H -2.3371126337385535 -2.807579582257703 0.5951505071992835
H 0.3903103508676466 -2.854096835094196 1.887211756205794
H -0.6891447824157565 -4.280324186756828 1.499500779572532
H -4.166728438776148 0.07522472184890676 0.48655871656176264
H -3.3927776464612616 -0.10498578262656846 -1.1477484254970685
H -3.480857640706827 -1.4575847083086448 -0.01685227675559013
