18

C -3.131392078851508 0.7250552001639629 0.5058669642243129
C -2.053050454207172 0.2544834915017413 -0.4446637947902444
C -0.7261395829791404 0.9566386642583152 -0.23592801726864798
C -0.9234219916472965 -0.5143661759524125 0.04026846620803934
C -0.29986223451189276 -1.6025193433071698 0.4571731743803894
C 1.092682906293951 -1.6573544398953894 0.8542145203965701
C 1.9028667622853919 -0.7903067714186458 0.32379096923883144
C 2.7463788465113375 -0.027873739451513467 -0.2701867589055306
C 3.5745211862941506 0.9505859932371907 -0.5972879692991376
H -3.4889050017459406 -0.047225964678680274 1.184508082230826
H -3.9645062485706637 1.1648125333636072 -0.07411349377645875
H -2.3818842370832427 0.12177658354574791 -1.5001721106344301
H -0.5622273344965498 1.5293373847664575 0.7010392828782367
H -0.14906952038251167 1.2242610638212068 -1.1431989594587397
H -0.8817504799583067 -2.5198857036532645 0.5026405542828057
H 1.4184715153542635 -2.407636560495508 1.5717428788853238
H 3.2202781805775587 1.950960882999488 -0.7948599243305112
H 4.607009767117607 0.6892569011947847 -0.6527818054193457
