26

C 0.8858325541389772 0.9574360270037346 1.6328081325637163
C 0.9516001242254031 0.7272756924339426 0.18103760312340883
C 2.1129588316701233 1.0524984229588137 -0.6073897429284251
C 3.3155231757878925 0.5890419184716396 -0.3780046440953528
C 4.382973466310075 0.21156408924856965 0.2725156816604334
C -0.10866002928060825 0.19461910453608722 -0.4337939114797289
C -0.11680418916753849 -0.0670847410185419 -1.8967384027322758
C -1.3346725552136722 -0.16150827808323906 0.3254497005155907
C -1.3187419850349347 -1.5980524261205158 0.7084437196175433
C -1.7394615884295712 -2.517898908634499 -0.1312021611986119
C -2.57894718484914 0.19618918154577658 -0.436713912403048
C -3.2860504216210353 1.2352966401535368 -0.00808356895964294
H 0.5810338765520177 1.9831348188486062 1.9088247905512323
H 1.7331268256293237 0.5612990526793702 2.1929116872030425
H 2.0690141403210256 1.6907385539888486 -1.4256597776978102
H 4.697084259331598 -0.7428067735386463 0.0003111224233122531
H 4.8847762542299655 0.7994851763614684 1.0022434820185149
H -0.9350085653121478 0.481154152159713 -2.4187356126952455
H 0.883473961157601 0.2585450204501412 -2.3058606789925884
H -0.2384123380308448 -1.1359978400005406 -2.1438031396297488
H -0.9496073458832051 -1.8846775281081147 1.7060808560209277
H -2.0983691869083754 -2.2372031715336544 -1.1017834407313114
H -1.7248451489982428 -3.5531780416748067 0.15262800760530185
H -2.884515068759313 -0.3650968135958221 -1.2931727859834699
H -4.186739834799537 1.508877882126806 -0.5446660422876629
H -2.9965620270662856 1.816348789341275 0.8540659310626856
