17

C -3.4162168195054647 0.7897087925148886 -0.6338445066553299
C -2.2921102107717863 -0.09878354751699628 -0.257424480996579
C -1.5992923762368902 0.06728139959817117 0.8855102363329164
C -0.5479114738107813 -0.7472792545083898 1.2585786691517156
C 0.41115976715217967 -0.7474220556344944 0.3837563254276606
C 1.404060560203676 -0.8459853533610788 -0.4537086310427297
C 2.3903690037072964 0.12134679932996993 -0.3768139565720738
C 3.4889878499717404 0.2231936562440533 -1.1232513393652603
H -3.860345425568077 1.2895409500243518 0.23188060147326667
H -3.1238830421412707 1.4955847468385086 -1.4428328180098968
H -2.0179952757010566 -0.9079715472023804 -0.9219681080784382
H -1.9597129282599555 0.9228427479192259 1.4932022585655567
H -0.4356671842663217 -1.314990177458538 2.089365655296242
H 1.3880572919976522 -1.636624320997585 -1.1171050889478435
H 2.301331934009492 0.909283081712321 0.36209163800575234
H 3.677071532312556 -0.516937731279438 -1.897148333110636
H 4.192096796907241 0.9972118137773721 -0.9963883572382742
