26

C -2.8968387526154 -1.6242452387822062 -0.5177544744559893
C -2.6006124308851044 -0.21889232193655958 -0.36744649204993196
C -3.387218498937969 0.7973551224357361 0.2898449608160939
C -1.4722362315884943 0.16970533705809693 -0.8958169541014546
C -0.31071296247772306 0.5651543523906413 -1.3363377976692001
C 0.7714230872553117 0.4621324171248934 -0.35621181314695727
C 0.9404569553611466 1.5104224285433319 0.411036909503741
C 1.9363066263311097 1.6970864445015268 1.4758511704536061
C 1.5242116024889876 -0.7929505589607531 -0.3611404699715897
C 2.6102606018579766 -0.94934415656117 0.5843747585417258
C 2.6051320062187955 -1.9160965962220708 1.4920660366110563
H -2.7776261068805734 -2.014995188641989 -1.5351257031103867
H -3.816231099573077 -1.9712679347250837 -0.01578265287335009
H -4.474026160599895 0.6078911475306739 0.08930309444294697
H -3.2055012525558553 0.8657272313090848 1.3946338283721542
H -3.188792407152822 1.828985142103531 -0.09212158333062025
H -0.2982572734267226 0.9005158773149656 -2.31754678570053
H 0.2685369901892623 2.3797181140559847 0.26459408907573456
H 1.632355581576813 2.5295476125181766 2.1838098733412004
H 1.9153879856938076 0.797885767272773 2.120403718959729
H 2.923304180170257 1.9540318873811344 1.0614168345204589
H 0.7621274853334682 -1.605245072672403 -0.1676023354660261
H 1.90406999473105 -1.040308820589392 -1.3999081776933875
H 3.4617949876353737 -0.2866693700197098 0.5739168605823918
H 3.41161249249339 -2.052299620986853 2.2131215781603935
H 1.761072599357671 -2.593844001441724 1.5107368882671297
