18

C -1.7153633638692547 -0.6518343664417748 1.360740406780885
C -1.1837258946202192 -0.7191053713975438 -0.05160250529579809
C -1.7032792258550522 0.4250262084933289 -0.9018947163043365
C -0.45685493937704896 1.1683317894558554 -0.4538637360186498
C 0.17847737681092754 -0.12085677325208034 -0.09995218111282032
C 1.401951514547333 -0.6134919084791984 0.10389551117050982
C 2.621181869841042 0.2230329016961934 -0.011682495661378784
H -0.8920431447241335 -0.6218373326463918 2.0917466514105363
H -2.310343295593429 -1.5567291765122753 1.5730500895386441
H -1.276406318817134 -1.689532706429854 -0.5593305296438152
H -2.6473677117782706 0.797281762371435 -0.5072418050662726
H -1.70874285573612 0.2441551737857971 -1.983390768790247
H -0.6855258209634724 1.832165801660983 0.39834461658251163
H 0.02926947557651173 1.7091217589881722 -1.2939275508745631
H 1.5460178304307937 -1.6550416761948745 0.3640888032263463
H 3.4019198761603224 -0.4027400610124639 -0.5128807399840245
H 2.452038012056077 1.1767378139829352 -0.5400972941199859
H 2.948796615911175 0.4553161619317259 1.0239982441624402
