24

C -2.118691643898497 -1.936154761956241 -0.6084825651847875
C -2.6845933285162977 -0.6324843164301528 -0.9191635720691458
C -1.8256916243720682 0.5221177259246286 -0.42285998249488344
C -0.6294201040025026 0.27598611504344117 -0.16079850197745213
C 0.5709765602399076 0.8309984298484683 0.28786924639177836
C 1.7650477795159594 -0.063598247644028 0.3985961388298922
C 1.650708495384881 -1.3180382720559627 0.07558307869583865
C 2.8430538292417267 -2.2159341228633203 0.18513233683352517
C 0.7403611075308066 2.1120964370145554 0.6313835478209106
C -0.38556614525445504 3.0502828583382775 0.550452346866266
H -1.647546879767724 -2.098554814281045 0.3482266128084333
H -2.063584884150164 -2.6932949566218123 -1.3563630716845598
H -2.813100974474096 -0.5120295054884678 -2.0148051287038182
H -3.660075104761757 -0.5206505989441306 -0.3675133789454701
H -2.3406472475363906 1.4622807624507823 -0.3437820197274851
H 2.6705860752840787 0.3726651240703374 0.7424479841354005
H 0.7479478601793218 -1.7859635014026358 -0.27524889656288165
H 3.6151660798726133 -1.752268768738501 0.8384336771389073
H 3.334599163256473 -2.3558397932975184 -0.8185513342782544
H 2.5029400970401574 -3.1837597768639037 0.5931862520221317
H 1.7283366146689119 2.4506779436605273 0.9728131893795068
H -1.2288186645076151 2.789458283043712 1.2082800031610381
H -0.762834479664125 3.16771588916348 -0.48617575442764355
H -0.009152581309170186 4.034291868028322 0.9413397919720444
