32

C -3.0541361853135944 -1.9487822293203914 1.3606646840970171
C -2.903570571970267 -0.4613775022471174 1.1924280700695105
C -2.2385643559492396 0.0574680006970249 0.1751450428116415
C -1.501625118127059 -0.46546937677901695 -1.001930074057752
C -1.865769907209758 0.8592109838468759 -1.6925073704647988
C -1.9060762815940258 1.4276531040344267 -0.28309564161955053
C -2.9083866887759102 2.4906220337634393 -0.02873117793411635
C -0.5116000723011264 1.7033933512143173 0.19083336315232768
C 0.3890065165134126 0.7712601328804224 -0.06352132841128277
C -0.008721038129892203 -0.43228492484784603 -0.8001677396144665
C 0.5385282057728039 -1.6151043203616335 -0.16392000981887725
C 1.6649230209884411 -1.4822897362545608 0.49176101862355187
C 2.8411517056085382 -1.2413085521485574 1.0208252525949184
C 3.9696803039793753 -1.3860081790585668 0.17475202702872433
C 4.680378258733737 -0.30883649020602394 -0.07072719842185772
C 5.324888047558121 0.8250837527794057 -0.2540834087981446
H -4.046173304455733 -2.2241701872742583 0.9599274004397546
H -2.2285981130941193 -2.5011856027492687 0.8728806258357784
H -3.3781686755120592 0.13789244008782067 1.9623776865097995
H -1.904334668511907 -1.3552144536711856 -1.482328813687276
H -1.043534798644631 1.3091509596166648 -2.2497982125370215
H -2.8671078619603985 0.8711604567166171 -2.1410988314007064
H -3.5280304714274555 2.7840606799581598 -0.8736022117360913
H -3.3954934084395285 2.470282472306402 0.9447224134930223
H -0.33627050751132004 2.6307278224679824 0.7010196276688155
H 1.4078829070034915 0.8805918458960761 0.2604781926438009
H 0.43992701458328637 -0.36151094643556525 -1.8337253394175599
H 0.16815875161940452 -2.618050373308993 -0.13703645655011742
H 2.7793279313560086 -0.9578642399083094 2.05330712816115
H 4.347797702294659 -2.259507035709327 -0.3116362065262093
H 4.986760366491731 1.3886550201608234 -1.0817553595151672
H 6.087751296424675 1.0117510938539458 0.45160460683640596
