13

C 0.4689728199049594 -1.9583770570664227 0.43476589369264873
C 0.39883206779150904 -0.7884244110666045 -0.3741323661992895
C -0.7639028491602832 -0.49779618869288333 -1.155493861557061
C -1.7738364693362476 0.2426803096028331 -0.7652750052459438
C -2.5244932639331497 0.9748770349175953 0.030528493396931696
C 1.4408247737016109 -0.014130825549274974 -0.35460158084163645
C 2.240520397391571 0.9989089500806674 -0.2103873987611974
H -0.4069496123376109 -2.2075565869285145 1.0453348849343465
H 1.3677035639204795 -2.0914458341631854 1.061810605372604
H -3.213694344405877 0.5313677277737509 0.7234146776350888
H -2.410133642280422 2.0387505506378387 -0.046977047406973386
H 2.1539861368833453 1.753685683473296 0.5144562974217731
H 3.022170421860107 1.0174606469809495 -0.9034435924413051
