18

C -3.8819725449617506 0.7114254077918434 -0.8481837037431107
C -2.745445767959537 -0.2223947366247529 -0.5975008650681012
C -1.9297028543077817 0.0902016942829423 0.3933189479900781
C -0.7517245298045773 -0.716273264063018 0.7862964157004837
C 0.4073100638935921 -0.5089747104777724 -0.0830107646671839
C 1.5337321575749339 -0.05638404596924915 0.41549277537140716
C 2.7343816236980905 0.17414393807259734 -0.4006874682754465
C 3.8491473937577942 0.6237015589275967 0.10155424808801491
H -3.6225775041753097 1.7387831793554471 -0.5160928401794094
H -4.804327693590651 0.419575973818887 -0.34376500581116887
H -2.6589235227478705 -1.0837293277962425 -1.2304003232080554
H -0.9920257107446193 -1.8052451928933098 0.8510612462618193
H -0.4853374367835064 -0.41231814254451854 1.817732947260535
H 0.4057797944741733 -0.7100536091415187 -1.1562096468079202
H 1.5926104804673011 0.158190443617496 1.4628439839969698
H 2.6706307518113075 -0.04222484007752731 -1.4494877214287223
H 3.9753159981917263 0.8631346973982874 1.1671960747062893
H 4.7031293012066815 0.7784409763228649 -0.5284651541796412
