38

C 1.335724553851247 3.279542936189094 -0.12390218932370865
C 1.2197698953271516 1.8756953531331813 -0.4207232523008908
C 0.12247798933301632 1.5090731762322918 -1.0317058955660892
C -1.044734194368328 1.1474685503238775 -1.5275842905226669
C -2.0643402121852144 0.8159262537992732 -0.5576670147986199
C -2.3646299154327544 2.0477376366466893 0.27692550065480104
C -1.7134236589566672 -0.3484193357342214 0.26905925641916173
C -2.479094383894957 -1.4018748435456163 0.4371758274784001
C -3.8030788635713235 -1.5309533725801823 -0.20078296070487003
C -4.3496506146570555 -2.932667793489519 -0.03183843078519737
C 2.1222189037688466 0.7812693289296597 -0.15277144707874185
C 2.271693223860219 0.4514209888456189 1.076584009782488
C 2.283467606547326 0.334787718590907 2.4032948340743943
C 2.847895928117989 0.05112229480935809 -1.1374362195510668
C 2.6502018464012016 0.44751128161999626 -2.42493021849412
C 3.7329985206853493 -1.0250886434357707 -0.8789873544074198
C 3.9219800786729384 -1.4037323242823985 0.33137952542671745
C 4.262461498963152 -2.0039818656701938 1.472688158110442
H 1.1698565561841625 3.970613420749243 -0.9670280403708255
H 2.248772848275732 3.544367088785724 0.4488449388539695
H -1.0452655887579105 1.159084713804484 -2.5775359011476886
H -3.01059938753889 0.5494221585619443 -1.1122854320645637
H -1.6302302387101526 2.874252961995755 0.06123797445237623
H -2.2781606911075665 1.8372793662839682 1.3556902089560796
H -3.3638458051869016 2.476242831041404 0.0069275015228918565
H -2.1140850523649997 -2.204723481523876 1.073091870217101
H -3.675832022819238 -1.3733334770272942 -1.2921301431461416
H -4.552326269797376 -0.8295829291571085 0.16975227471033158
H -4.099920939616417 -3.579885104076211 -0.9191600407348639
H -5.443558932748149 -2.9243266052950463 0.0318081814022136
H -3.8919266545623863 -3.4559959381937313 0.8377007122207111
H 2.991695727666734 0.955588812636402 2.860095889539798
H 1.5807119044395352 -0.36701861009816256 2.734979166491276
H 3.1599730574901 -0.05202597020298016 -3.221414390176052
H 1.9888953550164377 1.2538519967864798 -2.6424666398500167
H 4.286269113009115 -1.5791326743200804 -1.6361059003364629
H 5.079150119668702 -1.529615785850956 1.928354065570303
H 3.6484886990368506 -2.8199001152504097 1.6943435049962532
