14

C -1.6117419121866876 1.2871720989764466 -0.18684555345723988
C -0.5801126765386013 0.22543241788628085 0.17605930058140928
C -1.3661526707052196 -1.087936031632204 0.28063349632896506
C 0.4156093769384531 0.19006528725750763 -0.8989090838996462
C 1.685192992674349 0.1397029471941813 -0.6007368594995524
C 2.8292423046529747 -0.20692823165101126 -0.03202761170507854
H -1.390437529911412 1.7585560587918003 -1.1643858035141563
H -1.7049426222793247 2.0352546213861404 0.6259200990132939
H -0.17790516727005928 0.43142099967745096 1.1748849847852743
H -0.7197182001486699 -1.9182637168925742 0.6268966163676171
H -2.1653692764477714 -0.9021583924786185 1.0195968434901392
H -1.7988098044977108 -1.293238685236296 -0.7064624080891648
H 3.419121266041273 0.5668124650723063 0.3743942053476293
H 3.1660239196787776 -1.2258918383506388 0.0296122247654481
