15

C -3.5397184926110863 -0.017451932719961 0.21509423281207765
C -2.2136895760903395 -0.5624480120873513 -0.16571558737061381
C -1.129165834661573 0.14543051001822221 0.09967576293404286
C 0.23397525412139997 -0.32811222708353766 -0.24843791906235568
C 1.2911758238393691 0.38220819447907595 0.4287706673284527
C 2.5132926750274507 0.09431922608323888 0.10907808586179843
C 3.72910638694404 -0.24569223338115315 -0.2662187771404011
H -3.6090009963641125 0.2526441944888333 1.2849375972702004
H -3.7546285587141632 0.8261084860850965 -0.46016415650906367
H -2.093260016749182 -1.5204907922277024 -0.6545909755663463
H -1.216525635527724 1.1035980834204586 0.5859374771006061
H 0.37398936224565493 -0.5294683168642583 -1.3139146007832172
H 1.1536076409508742 1.1179887773636723 1.1640245807582723
H 4.11118717355224 0.3195298941031098 -1.0715456733614093
H 4.1496547940370805 -1.0381638516776748 0.2930692857279987
