48

C -8.607236338394644 1.6001182557459201 -0.428774601637632
C -7.781940479066405 0.4513601809565086 -0.09348086264295057
C -6.665546752757887 0.2910685605783506 -0.7716436156661073
C -5.530142880656549 0.32379037790759213 -1.4166957548191168
C -4.436609564256503 1.0749967728125374 -0.8118201885056118
C -3.659074242657805 0.24652826207042808 0.13848653912023265
C -2.3711238848589646 -0.01551341945805915 0.023100156714120825
C -1.392432473075367 0.38713591195129865 -0.9803000851885147
C -0.1522694475930854 -0.027268864955401134 -0.8447551348768064
C 0.3402855766813355 -0.8722121770085158 0.24437904767357485
C 0.9527228575210981 -2.106216527960702 -0.290591178831121
C 2.207582247460975 -2.354875891300844 -0.037691212332677665
C 3.5301095071808093 -2.4212421024278075 -0.01875874651318807
C 4.260033825634096 -1.6310675390903955 -1.0745470894076834
C 4.214130736251252 -0.23162265856774347 -0.6864988010564259
C 5.235970353377239 0.5276103631516245 -0.4512591261393997
C 6.596011085183108 0.08087965702822558 -0.5431986937315448
C 7.625508121861892 0.8745410183291223 -0.29849266059413315
C 7.504426380718258 2.2530928948511497 0.08146735958501489
C 8.601247504832486 2.9673080145691437 0.3057021457321196
C -0.692976158198682 -1.2433693945056339 1.221651494356759
C -1.957618761386824 -0.8605175973499463 1.1438918122104482
C -3.1674166389885925 -1.0658093205922716 1.9392333570779214
C -3.2065076869832168 -1.8653733624475006 3.171564783314225
C -4.152393527133114 -0.4134073019410131 1.339648340168504
H -8.561229159288596 1.8897622096385331 -1.4938548901203574
H -8.256515916632786 2.480194474597183 0.1489517206209016
H -7.9402050888815126 -0.2946223928392884 0.6291868342621592
H -5.557458777952502 -0.22048955758562216 -2.3306032073780543
H -4.757133476921936 2.0272846602027523 -0.3345046560676853
H -3.766525826055802 1.3990324201036108 -1.6456202610296407
H -1.6761681119617853 1.004180049890487 -1.806018370817281
H 0.5544372666844715 0.2847266430712083 -1.6016206451564183
H 0.4127496584473686 -2.8142719486990653 -0.8861942289231632
H 5.290424131613732 -1.9873791757526134 -1.180672531890365
H 3.7411956006158342 -1.8307538441622278 -2.0531817952273737
H 3.201783053604748 0.20812418359070545 -0.5881273551315669
H 5.086820044693113 1.5827123855572334 -0.16152472743293506
H 6.838007268050765 -0.9677264288238413 -0.8280950049031143
H 8.647168035577241 0.4704780598592111 -0.38658058158916303
H 6.55656792711706 2.7585809220668676 0.19945049372546444
H 9.565842908566268 2.471252651192822 0.1907224970235697
H 8.507429394186056 3.989594336837323 0.5873805652488818
H -0.38702983369867694 -1.8696334084286244 2.052517298581613
H -2.8719298539072704 -2.896498725663762 2.920386667496446
H -2.5166400372123414 -1.3925240314142908 3.9291153962205008
H -4.2256688824540065 -1.9048260342215635 3.607965443639975
H -5.180659684883555 -0.3571315613625779 1.6644805781272614
