10

C -2.102929733637637 -0.023370956409512728 0.0009324735656130075
C -0.6669867027796785 0.33404182958084994 -0.09565510846169836
C 0.23197984710151312 -0.6014610061360336 0.16066057632529512
C 1.6771565152583827 -0.27484564799786826 0.07246735566620752
H -2.2413377367281386 -0.9969664323937054 0.5234654280333844
H -2.6121611425338416 0.7663233994824225 0.6167810042363149
H -0.3463251804441209 1.3129850067316233 -0.36286862754747023
H 2.0168850329011896 -0.1981000434369382 -0.9868973389325788
H 1.7974504465825611 0.7368462436860024 0.5507380321155713
H 2.246268654279772 -1.0554523931068442 0.6298887390938819
