27

C -1.7674271466015334 -1.5796469726372768 -1.0778817314475049
C -1.973762759411261 -0.5715003973510988 -0.02836451230051828
C -1.0318473717853895 0.5645539464823749 -0.26687727718391147
C 0.1371918114282246 0.610675590849263 0.34986233206241146
C 1.1055688629210707 0.3553391519532484 1.2022496203337247
C 2.135965313898346 -0.6289963462995869 0.8408324842679589
C 3.46982662565769 0.03137067057440078 1.0960012491845659
C 3.897030831825065 0.6207514605854604 0.004517026313556585
C 2.910299173234385 0.4233945509047523 -1.086381540581508
C 2.2251152197919786 -0.8571560788601227 -0.6624892256801369
C -3.3840966989527996 0.01044349777999022 -0.19582757235202758
C -3.634335143279502 1.0668883827835345 0.8835775726300309
H -2.3348636933150226 -1.4996042171418131 -1.986453194110493
H -0.8626554059608131 -2.1535516601921034 -1.0725229242558165
H -1.9273788574345956 -0.9364672711906777 1.0096959238688958
H 1.1098427901196517 0.8646107823267655 2.1227830090032125
H 3.994240379284753 0.01915718722368283 2.0403087092602883
H 4.819561411916208 1.1810058641450374 -0.1415318982430976
H 3.3936446360287422 0.21516916020911225 -2.062870963846325
H 2.197219643079078 1.273590884407415 -1.1580713617846423
H 1.249895749727419 -1.0106791495184004 -1.1215987771417768
H 2.9492056589796793 -1.6749281135957421 -0.816006764020349
H -4.157081319233 -0.7799538054528301 -0.10953934657753403
H -3.510598024680118 0.5136559723012645 -1.1550855281290673
H -3.810948170374967 0.5195189392976128 1.8295825610074699
H -2.7334592018749437 1.707062637583789 0.9857732442093265
H -4.466154314988905 1.715295332831699 0.5763188855131745
