46

C 0.1662537662545107 -3.3914486335574536 -2.903344810020567
C -0.621570670358366 -2.49751218032811 -1.9768669150644798
C -1.8939064910868406 -2.8323150176674523 -1.9569233579114862
C -2.941942072938862 -2.185609196880727 -1.1751999285411172
C -4.204408452845336 -2.953023966774693 -0.9950913152404515
C -2.95202466827126 -0.9773304449550998 -0.575586445854175
C -1.8105535780581496 -0.10624153457720777 -0.6506636510734899
C -2.059876403928392 1.0486452025816628 -0.08863603576015042
C -2.3509819093416082 2.1865739095287675 0.5211172966957108
C -2.889086080151297 3.1590439046254044 -0.38855726316305417
C -2.061077880861393 2.1711082135087145 1.9272815158717522
C -3.345567029053714 1.8853052512248765 2.7025985014264333
C -0.4614253403249796 -0.11731848498073268 -1.159338308888272
C 0.4786038509599603 0.715224162313291 -0.30038352000768104
C 1.850527358848135 0.7290034570632784 -0.780597074349909
C 2.66396010753889 -0.16962478973711678 -0.24934613081892076
C 3.398656373852109 -1.0320773815330166 0.4113736703050375
C 3.991370573576445 -0.5504922713626439 1.6223941602142142
C 5.0055623856728975 0.2939572793406346 1.6760032940583132
C 5.581201957246955 0.7861320125015114 0.43664637656749267
C 6.602817518910289 1.6372927905702135 0.4312016116863746
C 0.15086387773299015 -1.4743248572700363 -1.304415285956532
H 0.13394081789419668 -2.8818196960729026 -3.906966385637828
H 1.191248324212803 -3.41246799734097 -2.531653297506658
H -5.039101175480446 -2.2842496513946804 -0.7043157515839508
H -4.02119298987873 -3.6234986038291646 -0.10648468802550903
H -4.425738986547713 -3.618291463033789 -1.83335139781778
H -3.8446587486440293 -0.7019679770074351 -0.04559092714116581
H -2.1212375380987543 3.518904092267423 -1.1024164232025493
H -3.8167040302360538 2.8458394760628707 -0.9320036145519519
H -3.1967721655559833 4.071116625041895 0.19434745167288056
H -1.5534763004802148 3.0746794754963127 2.321266674055416
H -3.4727207355173113 0.8014085854080591 2.846287521103479
H -3.3679671335119554 2.451558600063155 3.654923240059483
H -4.200488103153268 2.242786042876944 2.06795340794185
H -0.4553352165899301 0.36021741819769787 -2.172391672453017
H 0.3643864809241253 0.533894637930361 0.7677590500465676
H 2.3312437374165302 1.3400334344134437 -1.4926608884127617
H 3.4530228054310066 -1.9820775517568936 -0.04721078502033257
H 3.5782161765896143 -0.9043348095801165 2.5707619867387606
H 5.435488972808453 0.6428586753064534 2.603298528611438
H 5.149757442030079 0.4363778690553809 -0.5106639540570121
H 7.038722089517872 1.991181304101809 1.3416592419003806
H 6.977164874910086 1.958886775767655 -0.5212893702236877
H 0.4057890012508494 -1.8268495278981072 -0.2626412455695248
H 1.1590152073341524 -1.3591531577101437 -1.7969014173522402
