27

C -4.532441798861144 0.8326581591464473 0.676139601454843
C -3.7190222874028875 -0.07137183543286713 1.4813812396288557
C -2.974341839810792 -0.9353625300380549 0.8174388754898614
C -2.201267512745983 -1.6615545764266848 0.06352619311510195
C -0.9132554407232532 -1.1072887077141842 -0.3022554718843483
C -0.6195977739407551 -1.3413768570133262 -1.7640499406084802
C 0.20397163554082176 -1.4674991407316191 0.5807838486108655
C 1.2004152550538156 -0.6218760323558601 0.7754015725574215
C 1.206059553575686 0.681331944325682 0.11671878418041198
C 1.85029873026488 1.7571121704491508 0.8789362842376139
C 3.109416822996356 2.062782195819947 0.5997529154020781
C 3.8804562647289296 1.3507040555411145 -0.4564696455117821
H -4.052225838375044 1.1931435780794122 -0.24205906875442343
H -5.501305559479324 0.40679079636240356 0.41807761177712677
H -3.620287825792955 -0.1545567516454208 2.5251299791488955
H -2.6236302530881863 -2.607572553803667 -0.2043363096613038
H -1.4285011839340982 -1.9578640795745155 -2.1978079440075553
H 0.31427688445559354 -1.9369219709772678 -1.878245036250194
H -0.5042754037261935 -0.3573955242701482 -2.2779721666067974
H 0.20448949354426602 -2.4443432583249565 1.0775170437795416
H 2.0127301938252042 -0.9019969101309719 1.4267157336047362
H 1.481527363355054 0.6582430256410419 -0.9391030054473203
H 1.3480271837121072 2.3130727017981103 1.6576451771818321
H 3.6331363971692974 2.846056762755524 1.1295347508034255
H 3.504718175572501 0.30147637952062534 -0.5485041283677335
H 4.934950433944712 1.2750999033685688 -0.1416382489036332
H 3.805678330143873 1.8885090556185735 -1.4413191435991608
