19

C 5.2489849268709285 -0.41119052573640247 -0.12697335522120343
C 3.761132097848061 -0.6316645920227656 -0.32407428336723176
C 3.1302329314697444 0.7270709088191538 -0.36679961207285344
C 1.8589956203979203 0.9140532069311137 -0.32822928250587213
C 0.5791711743720198 0.9476652519167632 -0.5616187391190445
C -0.7174273936203741 0.8596531845644557 -0.6017880297300406
C -1.4935195190863315 1.2207059930612554 0.576547314376753
C -2.547280089557286 0.4815944745872563 0.9044966868340812
C -3.4771718673998837 -0.4309114278660677 0.9234487779815972
C -4.68954061411832 -0.29978349652185327 0.09807321040521147
H 5.566107268162874 0.28914605118901626 -0.9533262973902273
H 5.338729539058532 0.21963341914237736 0.8029945060563914
H 3.31481395864165 -1.2300860414621606 0.48341203981722586
H 3.6428995819777708 -1.1412848332178882 -1.3034182690927236
H -1.1796491568015195 0.518486318062083 -1.5164256786834276
H -3.3491384491147125 -1.2879394923037366 1.5473314394822142
H -4.61055707839471 -1.0241113074459165 -0.753937652073674
H -4.7479961731578655 0.7234778490732278 -0.3686897665431727
H -5.628786757548471 -0.4445149407699315 0.6706927111062602
