23

C -4.268765325843847 1.5040858403191133 0.9100397786240482
C -3.7026509560904675 0.17490828752777254 0.8660500972611369
C -3.1561028525564887 -0.29318367311794796 -0.2128462504136818
C -2.5408304428475303 -0.5219819285305601 -1.3296937779073736
C -1.1502097833221745 -0.15477084464230248 -1.471457139361151
C -0.41856494381729753 -0.046544914052639434 -0.1262340253057989
C 0.9777413923235116 0.3326199098850221 -0.4443117025681704
C 1.9867869149609652 -0.32521065187746595 0.0823041599756125
C 2.967800829768163 -0.8154085077293454 0.761811511016361
C 3.993466734640479 -1.067606635220904 1.5586065758726966
C 5.373103374519022 -0.6129106254616964 1.1736450170612043
H -3.5930088253032197 2.3113536142818467 1.1929389149832899
H -4.893686166366211 1.7002823594474654 0.02649913317861153
H -3.7255558628484686 -0.4282145810067916 1.7121659429299774
H -3.0470208327686104 -0.9648923740420507 -2.120358886264242
H -0.6263661960861794 -1.0085708211598923 -1.9929018267922716
H -0.9740668440127257 0.7886287623178141 -2.031586194449519
H -0.443846832287534 -1.0547770434712342 0.3628299371987334
H -0.8769950060308915 0.7155809973283382 0.5252195966723501
H 1.122024460151108 1.1648185173523005 -1.1209723038027586
H 5.211307084847983 0.2991910586142243 0.5326848932711206
H 5.823244578178884 -1.4081082504369458 0.5743937599147668
H 5.962195500791961 -0.2892884963241214 2.0358670890729744
