18

C -4.42703997244725 -0.33103415828343336 0.411020703635475
C -3.603917703623794 -0.9310065314406851 -0.639991578672791
C -2.552870511171 -0.23227721769841123 -1.0193823631524812
C -1.4633985930430047 0.44624136926225144 -1.2091551363259452
C -0.33078037350966444 0.18911808327412735 -0.4182356661137927
C 0.9202188968668575 0.1411608344359549 -0.7372254184409902
C 1.8923035124949616 -0.15143116744612428 0.3049234483252443
C 3.1901552046146575 -0.20239543786364894 -0.01968408873601374
C 4.153311987568725 -0.5030260392253175 1.067055675525777
H -4.335033518962205 0.7546246730163155 0.45234223798620715
H -4.206854850429948 -0.7711719610835613 1.4059361335390286
H -3.7186163911827785 -1.8401967310936242 -1.1438396182197041
H -1.5388350745816244 1.1644744515768835 -1.9787379982791464
H 1.2516346071105944 0.3123079330394925 -1.7506093601376147
H 1.5624680537695428 -0.32244419000357655 1.3167716006127461
H 4.3806615201705 0.4550600854413967 1.6177745064110598
H 3.738012271193562 -1.2482984437933287 1.755494049248804
H 5.088580935161874 -0.9098215953359995 0.5855428727941138
