17

C -2.7655670592095234 1.0546898819187243 -0.3971551049741215
C -2.4093295386902245 -0.3086789747843924 0.1357953020147531
C -0.9408006784885273 -0.5134742613825249 0.2940153365773971
C -0.16026657172964787 -0.39063604665209867 -0.9284824069542346
C 1.1293038404598297 -0.5835366135659311 -0.8144315177375515
C 2.422414312991414 -0.6811417333870936 -0.5690322522189067
C 3.1052164652217096 0.5465972922762596 -0.20684911766164849
H -3.8643027590826793 1.1969435357973959 -0.17806740364131696
H -2.232482634180491 1.8242176895926396 0.19582191936724222
H -2.8426609704602726 -1.105189967075891 -0.4967671465738031
H -2.8763802765690887 -0.4012137127770654 1.1390442829448981
H -0.7755365536988061 -1.5173291520836816 0.7214560803931791
H -0.46174013682663906 -0.1666606932123229 -1.9118617578362773
H 2.783604380853784 -1.6671701973513056 -0.6734355900831012
H 4.031950751538215 0.3917017922382942 0.3962068969830149
H 3.383509471861844 1.0867137626719543 -1.1544710097201252
H 2.473067956009165 1.234167397776892 0.40422175014928685
