24

C 5.377805970067851 -0.3872465345406162 -2.18186509739346
C 4.341949347408315 0.6556644987561082 -2.3451402362296
C 3.154704361949527 0.4597163106851183 -1.8146069322881686
C 2.8784991510778646 -0.7353334922376018 -1.0981496416610903
C 2.2283544341207047 -0.6010622857414352 0.029705564959964785
C 1.5306787157120612 -0.36687768125286263 1.1141627127052793
C 0.12918533720545494 -0.35137969167412236 0.964655844421995
C -1.0738173157586914 -0.31804120504796096 0.830736239004106
C -2.552312535190983 -0.2818447649348401 0.6918102267163164
C -3.1870824924465015 -0.21386339833198773 2.038940715485975
C -4.4659946547630485 0.1037677643491964 2.144750017762782
C -5.286489083212521 0.3938415220919332 0.965221967100803
H 6.311856341932205 -0.010314399175272805 -1.7132057512014274
H 5.678667452810436 -0.8405883103975831 -3.1570988575309764
H 4.5922645227615435 1.548380565361287 -2.8960992344714294
H 2.3499569363271955 1.2075302791486187 -1.9092626835557076
H 3.1095202932013573 -1.744714743659435 -1.321193146620329
H 2.109274008357636 -0.2138370386900143 1.9852326403572236
H -2.8524943053121983 0.5385802911360406 0.03775098876203711
H -2.878879364026661 -1.254543765558438 0.24339749199552452
H -4.895706082309649 0.14433586665438983 3.1350505789953975
H -5.434671977875837 1.5045996621860507 0.8948815582410018
H -6.326689771542881 -0.013661820755203554 1.0895794630347846
H -4.838579290482366 0.07261330770252822 0.015527198488792497
