23

C -3.7684895008423727 -0.6500931111742183 -1.2924931350016944
C -3.8277599733900978 -0.9822022996700756 0.17564235500638173
C -2.5448174230900316 -0.7522077439927777 0.8682089483043027
C -1.3719983330714682 -0.6969827418270034 0.2825097831878709
C -0.19911973405440392 -0.46971396778166097 1.0493507527937997
C 0.7489163824605489 0.23713885380050703 0.46273833196996966
C 1.5990135559659204 0.9564282529965002 -0.22635882617722478
C 1.460472357005942 2.389413714605956 -0.0656449321844448
C 2.5087770300360384 0.20131380922076292 -1.0143992900500993
C 3.4519115804462013 -0.4512320566473053 -0.36780033049744715
C 4.359592758700231 -1.0681492945361373 0.3650162460485948
H -4.654749616801017 -1.1340209699984067 -1.7766318820830158
H -3.941411588890235 0.44772589727732437 -1.388461476222763
H -4.585970678175177 -0.3203793987648193 0.6411349669481028
H -4.202529663910405 -2.017842013035495 0.27778342157286173
H -1.3405703671202438 -0.8292226602811352 -0.7845999321217592
H 0.07531034885648592 -0.7588812734561742 2.018473721968144
H 0.6079552617950706 2.84808812126923 -0.5717000698197154
H 2.376917166017364 2.8986510038034856 -0.4396659808178061
H 1.3804521141197381 2.622377924906166 1.0335807322523214
H 2.553994798035001 0.07350758231652398 -2.06776527651825
H 4.078776002990833 -2.0399546936906505 0.6746447470894016
H 5.235327522916115 -0.503762935340516 0.5379892768292981
