15

C 0.48556928700140983 1.583231260011022 0.7491461713000529
C -0.27417749651895446 0.40111309901516173 0.3355137882681427
C 0.37336545110403396 -0.8653869380506868 0.12100663274989114
C 1.636843985089841 -1.0065170801097931 -0.2310020087487114
C 2.8825290556990395 -0.6988950800904584 -0.5484359941875702
C -1.574614055929384 0.4998947265435794 0.15667629584063847
C -2.376566206866769 -0.6764974592353599 -0.2621427950877418
H 1.31833649661918 1.8366740308268528 0.058032232093039086
H 0.7550067461479256 1.618330940741422 1.8025135860554982
H 3.582102393253179 -0.6157547052321891 0.25959189327178234
H 3.0798318913182894 -0.5575982766946282 -1.5985305006928316
H -2.08003885544495 1.4365765934871142 0.3111615915934402
H -2.5721017131512034 -1.3630586566319918 0.5965080947721033
H -3.3587743860697348 -0.33762357129534226 -0.6849602958181403
H -1.8773125922518883 -1.2544888832846672 -1.0650786914095782
