17

C 2.58881392532512 -0.9818551728921215 0.41673829025847614
C 1.3455855443063705 -0.21724731905851205 0.16710489816820406
C 1.4344654540684283 1.1248688401154785 -0.14617416713937378
C 0.27292604904766576 1.8320272997426887 -0.3776896392583794
C -0.9640386740768909 1.2256951677532761 -0.30197100500818025
C -1.0289766529765099 -0.11615993492530555 0.012563787239226964
C -2.3621929151439662 -0.7679585526697471 0.09375576063405229
C 0.12171477171870224 -0.8373312948533347 0.2468061171623588
H 3.2703170593378528 -1.0032122429136814 -0.4511444888972555
H 2.423870959604599 -1.9484878315808518 0.8888523945759836
H 2.39281354719628 1.6083216072712667 -0.20809972409921634
H 0.2778466023990885 2.8932996659665635 -0.6290173017338627
H -1.8656545909789322 1.818900357674994 -0.49223589337558266
H -2.249386826516214 -1.7022335764647936 0.6520234241561018
H -2.6684208032461814 -0.9650084497119389 -0.9707687991139325
H -3.034361746933456 -0.06782369081783583 0.6057609711767634
H 0.044678296868057625 -1.8957948726361713 0.49349537525460907
