14

C 1.891717688647904 0.014126051560451727 0.5998862994144719
C 0.7315967542724806 -0.1652898327129926 -0.3438100667251136
C -0.056932533605213755 1.077882349322799 -0.5110259564364004
C -1.32158294745972 0.9292681011774669 -0.1671783964098745
C -1.582372792705886 -0.4480849516997149 0.28844105234932443
C -0.27607566922738525 -1.1646901389460576 0.16812038080406327
H 1.5737579585925012 0.10406378409770076 1.6590588162527693
H 2.4613872045623797 0.9145488101392408 0.2648274850628
H 1.167691008491098 -0.5148305776050061 -1.3157478812910537
H 0.3385553027778774 2.0326424803385006 -0.8780361483830796
H -2.094814423178868 1.6973249721052814 -0.20232860749896228
H -2.4226316402860575 -0.9433364955071483 -0.23499055606077635
H -0.4058119501953218 -2.012999316296142 -0.5294994227000206
H -0.004483960685774205 -1.5206252359743908 1.202283001621845
