16

C 1.2065382706964716 -0.2083464115535472 -3.1044422951899198
C 1.6947710337119408 -0.5908491774209401 -1.7833299473658144
C 0.8849697998788005 -0.35091162604348436 -0.7936101561701044
C -0.001423234359185913 -0.02375848914275507 0.1691855164778232
C 0.2335537152498794 1.24858768893173 0.6760699669058358
C -0.2580901330620832 2.0308093755741607 1.5470076861342552
C -0.9381470862509199 -1.0527320669872928 0.41577747555893674
C -1.8940300578515965 -0.9776554686960289 1.2978519728158888
H 1.4904708638811628 -0.9020250864844495 -3.9205553450014055
H 1.367398782059737 0.8540122330585375 -3.354164852368956
H 2.601721935385658 -1.0358032103059316 -1.495142379274201
H -1.0917268058306695 1.9154286877433595 2.21530911296659
H 0.22836602862547845 3.032496357223136 1.6809871150737936
H -0.9013162498756623 -2.0010652396402 -0.14704711877738585
H -2.587242307152168 -1.8203294292985475 1.434845019174002
H -2.0358145551069327 -0.11785813695771012 1.9042118282316252
