21

C 4.039751333688679 -0.28883180983431866 0.026903479274442497
C 2.955539972703578 0.23112981835758437 0.9238344509269252
C 1.6400659106729714 0.2952631546216736 0.24543917135684384
C 1.4594570250272176 -0.06729601249354986 -1.005344918571581
C 0.19807758355522975 -0.011136416570651737 -1.6724855303774977
C -0.8286748425585758 -0.47395840276941026 -0.9988463196252076
C -1.8097825055164323 -0.8659081446959647 -0.2166832901514214
C -2.3947718777788096 0.14084636507635362 0.6062227619936592
C -3.7045090157474636 0.2517584680657215 0.5503056256754443
C -5.01491474416176 0.2982417235913736 0.43472350201356386
H 4.340517053573927 0.4045152526463157 -0.7573649088734694
H 4.866029767805171 -0.7650163967997258 0.5715091531264195
H 2.848303750726691 -0.4859282385315008 1.7632092748729147
H 3.2131632697726835 1.2038008159379001 1.3683539296092073
H 0.793334905236264 0.6559996986349919 0.8045857019109317
H 2.3218384414226647 -0.4273026811671677 -1.5517836602041764
H -0.05566471043299591 0.3461694673573081 -2.631296516273097
H -2.03139502970012 -1.8902313542799676 -0.30728684505951465
H -1.9332171849620283 0.8235569683314918 1.2652956042802412
H -5.366836636360625 0.9486130249729079 -0.3208686995813135
H -5.536312466966666 -0.32428530045143883 1.115626115885288
