27

C 4.504858287876556 0.21320669689695357 -0.9745454137905142
C 4.288555755509412 0.8457135351643815 0.31421030255896887
C 3.119855746526666 1.4465240186793118 0.4762484566591968
C 1.915179935988177 1.9296578482535753 0.5591609836364864
C 0.8991328784530808 1.0329348422992366 1.022561478115825
C 0.5795070115304181 -0.10474091197182693 0.4969078076572733
C -0.49732893137999107 -0.9276156362359853 1.0880839037610464
C -1.6044314202165 -1.1651879469682667 0.12010834926631334
C -1.9995573247328033 -2.3488524819851087 -0.2965862983747849
C -3.1192031363897845 -2.191693053652546 -1.2497699900559538
C -3.3128538991794616 -0.7156380745097203 -1.3207349319605273
C -2.42086380093612 -0.14003555311049762 -0.5159345771282633
C -2.282150234492111 1.304214722523769 -0.3030048123216426
H 5.516455778286992 -0.15243264615513893 -1.1605404447347905
H 3.6919937212457365 -0.40969301870481556 -1.3472460339444667
H 4.900564972255556 0.9187055075005741 1.1682642149312377
H 1.808027748428842 2.9318044683936244 0.2754768038894058
H 0.34390708529080444 1.361444137476372 1.918133133109453
H 1.0990904850620902 -0.45927900592768583 -0.3780992498108176
H -0.041483937790043716 -1.8815699553199308 1.4042918047908417
H -0.9209841686162564 -0.4661053715557991 2.003636692234552
H -1.5998713839719725 -3.3361749145202984 -0.016646062120311684
H -4.046760303448814 -2.697069722099419 -0.9164651773393379
H -4.034042496053335 -0.17391590205837326 -1.9061532601844762
H -3.1585167159913974 1.8512757004237974 -0.7449349831036911
H -1.3740044676647785 1.7314432254926426 -0.7744878474754742
H -2.255077185590847 1.6030794916710989 0.7599785575980487
