15

C 3.1712711554325685 -0.31699879493947847 -0.22507904961359784
C 2.213054121699251 0.7168684332598403 -0.5976488990141344
C 0.933279025549563 0.3851634426872347 -0.555614478752363
C -0.28004056368276875 -0.04064746504515995 -0.36762768003275154
C -0.8470902180451662 0.14895249366197835 0.9748678893990737
C -2.3180989566160837 0.01164822622494801 1.0259149514288117
C -3.130831147184595 0.32958401922909225 0.03820889604502331
H 3.7119921816949635 -0.7403631801512702 -1.071782593803943
H 2.7963250877877273 -1.023745762923812 0.5125544967433023
H 2.355939743071142 1.710584849495806 -0.9025124677291593
H -0.7381459096997961 -0.4833118056148599 -1.2003473666788076
H -0.4234226758470539 -0.6684527729167162 1.6272808272257098
H -0.49497023979168564 1.091466619839846 1.4334423312681988
H -4.194284230489835 0.18379806500007415 0.1951283527311317
H -2.7549773738782144 0.7181661581253181 -0.8867852092164727
