17

C -3.395463576424124 -0.267182366105621 0.05414601188287643
C -2.231854361349941 0.7326859705992114 0.008596833602190207
C -0.9943353488457619 -0.04446984201350714 -0.2566426685436775
C -0.0006377427900225931 -0.02133004554802468 0.6150838714919926
C 1.2667098755900412 -0.7755537554822881 0.41328152066592616
C 2.3772535158813266 0.20733217494451764 0.44333574638646067
C 3.5447993930022794 -0.13900566999988634 -0.0703050672932185
H -3.445509825183117 -0.6896598006719454 -0.9852057555943592
H -3.022232339713549 -1.0967034493655576 0.7237674414833878
H -2.1809372785753673 1.2701032734034885 0.97758817128627
H -2.4628546404888625 1.4625021114143484 -0.7972500200445055
H -0.9001566937140856 -0.6301720375445079 -1.1593457805623828
H -0.07770371833977413 0.5678740247874081 1.5380495689265143
H 1.219635404716067 -1.2045150230671113 -0.6285872728028574
H 2.248448750986783 1.1956438211200848 0.8754818769375002
H 3.678271487046851 -1.121494653600723 -0.5016520319973747
H 4.376567098201339 0.5539452671302082 -0.06487568767650863
