14

C -1.8603791707638022 -1.1104846347335733 -0.3258153007890029
C -0.6906226537380449 -0.34745258410723573 -0.9581197313434051
C 0.04739583230068594 0.40256300998677447 0.051860572183486914
C -0.42338965147133617 1.451632205914184 0.9342326254091268
C 1.306921602528743 0.1055555101069173 0.19943368770797648
C 2.5694505931529665 -0.27164554119307216 0.3369454114187413
H -1.5071299035694277 -2.0516626443726564 0.13887880973055855
H -2.430942038046909 -0.4667536333276845 0.3746478866247568
H -1.1799636493112717 0.32087028705817866 -1.7262113358147406
H -0.09327302131287277 -1.0837925558060746 -1.486891341242156
H -0.17384012134229898 2.462186390043808 0.5753218279177883
H -1.5077962508579772 1.3588412796906748 1.1371344405693695
H 3.2202645477998617 0.27322729642057814 -0.28627319244450167
H 2.7233038846316826 -1.043084385680828 1.034855640072
