42

C -6.302145032507655 -0.8655196885871655 2.1059436701857317
C -6.1706853068965675 -0.7279823891493636 0.6640491898568164
C -5.054831551385154 -1.1708793510540398 0.13140813875850618
C -3.8696959246292435 -1.540403804759469 -0.2764993678946992
C -2.84757369791003 -0.5423158676710357 -0.25845309257176546
C -1.6099595626771674 -0.8437755914472209 0.09382909200705113
C -0.42878767382900773 0.037102547486183524 0.17423487981998448
C 0.6591478908652396 -0.4422145959433638 0.9539514930888473
C 1.8176080895312026 -0.5400576748487877 0.33081993590307157
C 2.9062586917639455 -0.5953352070228337 -0.41072181818072295
C 3.1029463197462275 -1.858130475477647 -1.097164886922004
C 3.6969347659484195 0.6146705269404046 -0.40097893058091905
C 4.372735563488212 0.7918972880538394 0.9438739734492106
C 5.237906004239548 -0.3638339459945771 1.1754386546433737
C 6.062504404650205 -0.6764407881924931 0.20901730878635238
C 6.856879069503653 -0.916926347397562 -0.8104157477121977
C -0.3237549057296985 1.1951436577693635 -0.4112648704227068
C -1.1834062216270704 2.033445631041029 -1.2820302742431589
C -2.6193872996922294 1.846999434766984 -1.0756839097399244
C -3.412500478224296 3.085918471230901 -1.4076783931623518
C -3.309791667197887 0.7985425627677735 -0.6577962419362544
H -6.191762713366715 -1.9356553385743835 2.3839005516314966
H -7.304466715773831 -0.508902926287315 2.4352483197599613
H -6.836792902128087 -0.32088431355550273 -0.045327000119057326
H -3.825293675628152 -2.553060551687579 -0.5708638719386653
H -1.4741539418438663 -1.878088959632369 0.35163466279206157
H 0.7327001144873362 -0.7445039226178357 1.9575122443551833
H 3.6640632375774467 -1.6527560454042256 -2.055766812951244
H 2.146955748158094 -2.3362178331407875 -1.4439373627238186
H 3.615809109530956 -2.6351163539579914 -0.4920651194629846
H 3.1624942237536255 1.542758537268256 -0.6355915594650154
H 3.5417187390110323 0.8317872499488 1.7072530531586052
H 4.887806321288291 1.7585010496631026 0.9567605912661052
H 5.298604341681546 -0.9942972105924592 2.0183934559968493
H 7.791701975428778 -0.42133254343779664 -0.7712457508072553
H 6.454157303683034 -1.5761842600713838 -1.538579334172438
H 0.6449294145915878 1.6723495158728836 -0.21150272229804615
H -0.9053979360583244 3.1004095250854538 -1.16353116263207
H -0.943010257610926 1.706133731514479 -2.3364025966819026
H -3.1791512918799523 3.823923780018364 -0.637091352460978
H -4.487642376737369 2.8502462962296686 -1.5097688455088072
H -4.373670195594271 0.9509861808476241 -0.6016246451422648
