48

C -3.254345028515609 -3.540266329593915 -0.9862642025920396
C -2.2008884990471587 -3.2503320964951397 -0.023541745454061836
C -1.1385841879615668 -2.6402510519942064 -0.5075814925631771
C -0.17473837914662607 -1.9317950406885624 -1.0527037732569335
C -0.3516225948201628 -0.48264939909290183 -1.0439230174446372
C -1.7809614192357544 -0.07265626798561223 -1.0950497611176524
C -2.4124867878408227 0.12694770909333383 0.028793618669570805
C -1.699544261203671 -0.06224415266389779 1.2782664377431607
C -2.598134921645171 0.3130506021724534 2.3282485294761446
C -3.785645143657352 0.6786940609192976 1.849697820508781
C -3.797082581338076 0.5948605245798091 0.4051743462622937
C -4.6577364764099665 0.815672395462164 -0.5197479597238129
C -5.986024765640972 1.2396425670286293 -0.5699844448957723
C -6.739059527095377 1.54326492090889 0.4541714111572319
C -0.3162286196389567 0.3649825886893625 1.2636708187564998
C 0.34082637411371064 0.1563786155903597 0.12134177377870527
C 1.7228278920879216 0.5451320623284774 -0.0012837132156632662
C 2.513037169864968 0.4170202315245734 -1.0370067991778809
C 3.8956021458514045 0.9390069302556215 -0.7920936702149133
C 3.9514600214965925 2.299171038322639 -1.3152278372219837
C 3.997234704509134 3.357225180907595 -0.5431940881710912
C 3.918925987727132 0.8567229322469085 0.7337711256486786
C 4.193118196767301 -0.5370891564910476 1.1400141544920097
C 4.952354664510471 -1.227033022675127 0.3321056574483264
C 5.726168211796085 -1.8541652836804434 -0.5389594140838919
C 2.4933254127956195 1.1946511429080613 1.1140887574516076
H -2.9451322432178313 -4.182370462561426 -1.8284029356655767
H -4.1905201319207075 -3.845395741966817 -0.5088646756427517
H -2.136124807303275 -3.4439893423904713 1.0107999984487674
H 0.6137786707038938 -2.517553397797881 -1.4330034045921811
H 0.13074204758917674 -0.06643159389991785 -1.9531765493859183
H -2.2586302811840935 0.049461345051764714 -2.027469424269925
H -2.323331404316055 0.2960475972355896 3.407103436501355
H -4.575339920779515 0.9801017566021561 2.4857319889134026
H -6.500657784139607 1.3439706975385162 -1.586635683880265
H -6.469859670493004 1.5176915920950893 1.4687432808379253
H -7.776925201268935 1.8646110491280203 0.2494858781433504
H 0.1433613432136086 0.8131619730497961 2.1037208585666813
H 2.2273735552665572 -0.016594271913322314 -1.9857143670867037
H 4.605813786219313 0.23196491057700522 -1.2342179303499712
H 3.9549961861161798 2.4333302784379356 -2.3885879053410526
H 4.03931454787418 4.367612137675307 -0.9683223457966542
H 3.987962291961135 3.2422804374669463 0.5267585696229444
H 4.643681834936397 1.5244106897231944 1.2050104709551355
H 3.8606356669610498 -1.0554534389825665 1.9941534490539585
H 5.1984894561581365 -2.352718348582561 -1.3055785062323388
H 6.760038559270857 -1.7641889062913223 -0.3409973942897196
H 2.1985359100297677 0.7361093382274916 2.086680659229723
