20

C 4.384391159337721 -0.42843434425165244 0.22692291262741632
C 3.6479966800296317 0.8278565362005093 0.550185180437321
C 2.35889998052508 0.724297538153608 0.821819368325041
C 1.7148186040605762 -0.559106474822782 0.8001557726669511
C 0.6097868621417423 -0.637060090407697 0.10342735349471005
C -0.5303158408726016 -0.5972119342582624 -0.5435764084423154
C -1.696764631983354 -0.2296484689812246 0.2561097199313355
C -2.9475366175727937 -0.8656353019971901 -0.10933404293990573
C -3.9618593400229933 -0.0797942351130744 -0.4000723761635461
C -4.897580508032648 0.7886641483569795 -0.6523938714268259
H 5.412357545000863 -0.2216069806803097 -0.12948627216882544
H 3.7880120900855063 -1.0042532843035425 -0.5041982491426181
H 4.149406360847048 1.7921522587036547 0.5626023124432771
H 1.8271108014253699 1.654431722945599 1.0581836893780816
H 1.9906886884643682 -1.4650827576141734 1.2634579223304696
H -0.4521467663944197 -0.8372801755131224 -1.5668071309936165
H -1.771145576787709 0.8415955149906497 0.3957551994015029
H -3.1778087280558043 -1.8914270362247638 -0.18040321604871795
H -4.9612144160996685 1.0986424676097426 -1.6746589132571954
H -5.487096346095806 1.0889008972070815 0.18527494491952445
