20

C -2.157114037952036 -1.3654548282069725 0.171480728006881
C -0.7123575302245173 -1.0265218684103488 0.4345167655931137
C -0.3792949232526754 0.3608750499758643 0.1292076917094859
C -1.3869192082248647 1.0478908168810988 -0.32840024271349844
C -2.3749474225830536 1.8187579593408152 -0.7564902034259227
C 0.8921347212032632 1.0433179530919148 0.26776908088543794
C 2.034326256975604 0.48887577728838905 -0.52177678985539
C 2.407372088741564 -0.9176842443865469 -0.1922358063836539
H -2.297431246416127 -2.393427478784441 -0.22550282199148122
H -2.587452004867498 -0.6522392923352488 -0.5611847293923473
H -0.12158312101464584 -1.7360771949237357 -0.18863273732947358
H -0.45292048111305216 -1.1909864970710389 1.5220660352200894
H -2.9114289682207777 2.3085642481959274 0.008877225884074982
H -2.4644376504953716 1.8167295857290646 -1.8032658094889438
H 1.153257336142436 1.0307432012806048 1.3717504440452444
H 0.8114121680427758 2.1213465821145006 0.03905329392465213
H 2.90885593548385 1.1494002380573602 -0.40436594925465313
H 3.5200577856924613 -1.0515385834305377 -0.11405161581884242
H 2.0106663403213973 -1.2762342174184573 0.7851753224147288
H 2.1078039617613133 -1.5763372069882093 -1.0327722837465736
