18

C 2.7090205528519804 1.2546978275916965 -0.14204461030226764
C 2.9309231066976213 -0.10214774238569266 -0.7297953012834719
C 2.410928215316374 -1.2012032829065014 0.14176977819151995
C 1.11289324536054 -1.1975278970169654 0.40988684078315174
C -0.1560394764644985 -0.9268749329185993 0.48907441380004835
C -1.0980671983725816 -1.3128545200200776 -0.5726452376252743
C -2.4724189914546475 -0.9539785961598786 -0.2468777478972003
C -2.7339466564133157 0.3277204305820259 -0.13228754487775563
C -2.901049878493349 1.628479440343792 -0.03614733556821177
H 2.387095981649322 1.9847217274010556 -0.9272099367912194
H 2.0913384771929473 1.272843479188103 0.756364692210149
H 2.431947699104773 -0.24302876795659334 -1.7142596114317405
H 4.019251607963982 -0.2947011741169708 -0.8589457800549813
H -0.513738662575659 -0.4069480265644449 1.348842268901119
H -0.9968643286984107 -2.3700930106479663 -0.8969316598668766
H -3.308216958114339 -1.5802772588054128 -0.08534654786832058
H -3.167945928494652 2.101551365699577 -0.9435709521034717
H -2.745110807056629 2.019620938693281 0.9315124535600002
