26

C -5.666702095458013 1.8045712619550316 -0.006527385871608792
C -4.249114544447394 1.3194265149428972 -0.3359552710648396
C -3.670838589261741 0.7901986795231583 0.8896074335919595
C -2.814802923762124 -0.19564731930151202 0.7505484920270571
C -1.9021762714975745 -1.1099981726934576 0.4906352079283127
C -0.5554199615558698 -0.6139268439491807 0.26682757993179934
C 0.17658071510657075 -1.2448567689630066 -0.8180273537783113
C 1.2711092040345227 -0.6212748818604479 -1.2082156786942762
C 2.402184342827048 0.016189886066179267 -1.4549843600739043
C 3.5275961247277032 -0.38892369391448245 -0.6777254986422683
C 4.2853081559381625 0.40308233686849626 0.04463548163224097
C 5.4256473315993965 -0.03711967224075313 0.8266429778498539
C 5.853314682715475 -1.26564368163316 0.921112671018579
H -5.715931491011682 2.1161419198580234 1.0455301197194586
H -6.412924328942341 1.016771973203686 -0.2666088790969555
H -3.7187002600097983 2.221749893845954 -0.731345261234344
H -4.344241826020491 0.5363859137304522 -1.0983915374625528
H -3.820847342800963 1.066907046581146 1.8965425366840913
H -2.2901179625468577 -2.0902781002112336 0.4812770498745372
H -0.005627509174573428 -0.5246838347763094 1.2186283956052755
H -0.009332945451952998 -2.128502295009728 -1.3614419535776776
H 2.303012335880958 0.7479313122239348 -2.206579214758245
H 3.781607833182483 -1.4574623775267517 -0.6849496687655209
H 4.0457710023233595 1.4566211010735122 0.06004126253269767
H 6.724757860562081 -1.448220753112886 1.5474749243632266
H 5.379888463045158 -2.073595729563054 0.4112479302740292
