26

C -1.31574103926298 1.64495331740578 1.2097913311370114
C -1.8423538387826925 0.438522898504176 0.5267098083786278
C -1.0286664326836608 -0.40361832212802295 -0.045270985832198615
C 0.42971095797556047 -0.22325197801875687 -0.054060878848095614
C 1.2943868112510066 -1.0384188276333666 -0.6148547044751286
C 2.647356308313909 -0.5523619719915497 -0.4311072867692507
C 3.890623277294312 -1.1929808453452742 -0.9177225357844389
C 5.069550760902081 -0.6582713526622443 -0.6905884070496376
C 2.5991654183259363 0.5738131458741589 0.25173332036994506
C 1.1869417765443668 0.8801439424881163 0.5511630503169961
C -3.2998394166382594 0.2252897162711636 0.5158711731741288
C -3.691843828053549 -1.0407539521052611 -0.21382679143644723
H -1.3223443687743577 2.5403361642245925 0.5474150350291719
H -1.8166222565723644 1.8298970986777803 2.1725432776893725
H -1.4540257197415192 -1.2845664185798527 -0.5409678276997067
H 1.0655040182027884 -1.9635901431284104 -1.153773925528459
H 5.174491078220671 0.26058351569763 -0.14513132653370484
H 5.958678944054666 -1.1413335725067706 -1.0536073242695516
H 3.4866936235954107 1.1708526843093012 0.5395318133502165
H 0.9225347726728452 1.829697455519246 0.017423164102000982
H 1.0030652634686732 0.9794826625771982 1.644523353296335
H -3.8166180737011066 1.0811245473334312 0.06323206578428615
H -3.644882152368125 0.15913754723823803 1.5676636936898949
H -3.5079336441374833 -0.9936266336210127 -1.2852994823998078
H -4.781430396234126 -1.1955116971223396 -0.07027058141376337
H -3.2064018438705824 -1.9255489812777808 0.28309265789689325
