37

C 3.3728332805407386 -1.2330799146510683 -2.1978129712361807
C 2.509245012367792 -0.3125480747420358 -1.4049287732728817
C 1.3774839608467007 -0.7225712863075645 -0.7385324626214773
C 0.6316989506744402 0.3306083885472288 -0.011867055261577915
C -0.009882632562943677 0.08562967206960262 1.1931471377617746
C -1.3111336517359626 -0.022659418572389636 1.3229883451531714
C -2.235080739939953 0.10298277648647969 0.13554479142812587
C -3.167695599442613 -1.1072900389259455 0.2548933113823165
C -3.9115040553727534 -2.045878132720224 0.33635621773638985
C -4.819337684840947 -3.156911532654313 0.42098169953638753
C -3.1041943623943613 1.2806063436282182 0.298585910903428
C -3.3065639963845803 2.2034573565013105 -0.5702693784114266
C 0.508831819198203 1.4739213231635286 -0.8649372172667879
C 1.6167311995660971 1.9562264508326344 -1.53028042877829
C 2.8483707913997716 1.1210931478539643 -1.1823385813614244
C 3.0099009660152825 1.3085961854902137 0.33567832401061926
C 3.3453483179966375 0.21782321567313503 1.0118046223319102
C 3.542864312508303 0.17120829684846886 2.4724964106497014
H 3.834840131983858 -0.6440834055071757 -3.0199204413302105
H 4.172223131360429 -1.7327224109822243 -1.6440616567306614
H 1.1386216133732339 -1.739387767336457 -0.7843148097948708
H 0.564190613838415 -0.06578631529740393 2.175546067213115
H -1.7683628432332041 -0.2045834080884808 2.272871917683947
H -1.6922680681939961 0.0316126080223397 -0.7834552184164801
H -5.221564532317853 -3.3337435276325027 1.4763606296705902
H -4.381370784999551 -4.1454419119422345 0.1177572530645773
H -5.687105905490527 -2.9652959562062207 -0.24567072131105697
H -3.6104764008565238 1.3627242466166507 1.2808753477787105
H -3.8329820560809575 3.0641871355344152 -0.6684531598989683
H -2.6943254177778737 2.034212665722072 -1.5712228695817319
H -0.4000874246539519 2.038372869374846 -1.0288497282790483
H 1.6445818255033176 2.759506511561242 -2.177347183346936
H 2.834385156145515 2.2366970769911005 0.7960580854137043
H 3.492848702769983 -0.7762043126784577 0.5060223449933807
H 3.3892178595074927 -0.8974190841566146 2.7808285540670195
H 2.767441522022175 0.8615975032503561 2.9146479996343206
H 4.552276988656826 0.4645427242605403 2.8170580252378103
