37

C -0.9761757764719415 -3.929077108193418 0.9951400250225344
C -0.7516449617750289 -2.510276126292478 0.650137484586798
C -0.5547256321954444 -2.134156158553441 -0.6079701009446827
C -0.5521113879925462 -3.124381125435962 -1.7199531344475978
C -0.3291224223624726 -0.7120063472731831 -0.9586591955358776
C -1.407895745551446 -0.10086630349606818 -1.7160823715338804
C -2.1473104052649385 0.972075825417036 -1.518947590482958
C -2.10310659661897 1.9226421327286982 -0.41965429251047187
C -3.18656838013785 2.660183099656602 -0.2785054227953178
C -3.3527979895826756 3.684617014213476 0.7703994371355847
C -0.988967926138958 2.127430001274498 0.5170668368167459
C 0.07342425998304299 1.3319880539918418 0.7433357285719745
C 0.29608465448541205 0.0849789156106659 0.06350431386368886
C 1.388338939978217 -0.49058460343540505 0.5031869014866188
C 2.5392115493826743 -0.9899211656354397 0.8613909665597463
C 3.6732503725545462 -0.5579531999871757 0.06983505941773097
C 4.335097416862673 0.607602335162518 0.6943587026971686
C 5.400720550629091 1.132106818714455 0.1273558566126076
H -2.0135642259350703 -4.190320000635659 1.2018093320501846
H -0.2354900546710096 -4.3479964076546675 1.6839088624527678
H -0.7522042548609111 -1.784656852314669 1.453480041088475
H -1.2110301964483428 -2.7436495424822134 -2.5382303913905173
H -0.9952611399580338 -4.061663192398152 -1.364401788264785
H 0.4933989687576209 -3.222570974768168 -2.061839186790132
H -1.6718727749070887 -0.6303637641637176 -2.6456530893579115
H -2.907889156511596 1.1822001363638335 -2.2945630596158373
H -3.9950196252567856 2.5040838991153413 -0.9719956640224965
H -2.8525921696336316 4.627249190475081 0.4494822189501639
H -2.952258998351812 3.343531572212025 1.7685395081037578
H -4.431016173084799 3.924368676770743 0.8602054709110857
H -1.0686902082960084 3.0305920734279783 1.0667643419908015
H 0.7580188534316831 1.6808461375946964 1.4690721898769528
H 2.449090224701785 -1.6344694594464921 1.680591873128119
H 4.429188367864234 -1.3790174714640182 0.036294340947639
H 3.955016827668877 1.0368449970484752 1.6133675421344116
H 5.777306552596433 0.703794727505867 -0.7867264666289752
H 5.869168663111601 1.9867941963464355 0.6039547199158591
