14

C -1.8449477157428003 0.997038874626337 0.4200395144622569
C -1.4325809750321954 -0.4101837173898536 0.01921631164571959
C -0.4933986608965014 -0.404734304227024 -1.1291505812421572
C 0.8115951270859948 -0.2672052507715279 -1.0243134079432221
C 1.5060976628610798 -0.10117980913862894 0.24537736719813272
C 2.7950800129466455 0.034880892899827196 0.35419665425744445
H -1.9981228161655014 1.6121333287491584 -0.47706929043574187
H -2.7434610079177566 0.8941479706891743 1.0558201703346457
H -0.9499528521086054 -0.9363791837857343 0.8802143920279869
H -2.3601050116757167 -0.996536140647429 -0.2121276197429406
H -0.9082842666480198 -0.52143545783249 -2.1173759169564264
H 0.88778156892928 -0.09441623083317682 1.131349158401669
H 3.2383390881411724 0.1535869536749969 1.331000281911396
H 3.4919598462227404 0.04028207398654885 -0.4771770339187323
