11

C 1.599359581011307 -0.4409079807604416 0.20466002411229756
C 0.23364154507497276 0.06698923166865935 0.618378866188482
C -0.6012347890663007 0.8638501561227698 -0.28956374119783934
C -0.9653390980044652 -0.5465311964603831 -0.05486443408623506
H 1.5140121204354215 -1.3430278347845939 -0.42936793288023384
H 2.064172998817924 0.3570365458244315 -0.4154085330768872
H 0.16946249084817172 0.24771372783471493 1.719352699899553
H -0.1501522412886107 1.179620199715603 -1.2441460530270871
H -1.2245225883809017 1.66103781748047 0.1771887363369688
H -1.7916434873771443 -0.8174139640557216 0.6205111047009724
H -0.8477565320703754 -1.2283667025855038 -0.9067407369699962
