14

C 2.4075087668128927 0.1838490716096309 0.14838691738869547
C 1.657502758947748 -0.6007114471204642 -0.8714775091438408
C 0.3309684263842428 -0.6012572427975871 -0.9082704328101833
C -0.4512452916394974 0.17313444203200945 0.05691319647459003
C -1.7501772410997622 0.7923761282980362 -0.29697696272907137
C -1.7164057911800197 -0.4011697728062719 0.6226666689521904
H 3.491867097170579 0.01056463343719704 0.08406856126428404
H 2.0128059826720257 0.02107588958592008 1.1722535686143283
H 2.2475492018552883 -1.1704534119824757 -1.5813384180009071
H 0.1424196941643226 0.7439739408230848 0.804060301177495
H -2.2401891085184564 0.5834349048747495 -1.2722729895704261
H -2.0011482187867 1.7903087677377758 0.10411952111725109
H -2.1068763539258906 -1.370189828482313 0.2718140059721026
H -2.0245799228567916 -0.15493607520926234 1.666053571293506
