19

C 1.7450465594621352 1.0348196256829698 -0.5973027130065423
C 1.7739739457455699 -0.29607040594981565 0.11629222828301082
C 0.46773970463808806 -0.4955297365194952 0.8289806912118791
C -0.7144694122210954 -0.49120849133716404 -0.1148010989403974
C -1.9642025649787433 -0.7020550848258754 0.7383039859173037
C -0.8760738212413195 0.8011035939421394 -0.8463670190027699
H 2.632081755734851 1.0899272834951736 -1.2691827304435448
H 1.8689752237643147 1.8229597502449397 0.19228209912009492
H 2.023119258219791 -1.120707680164651 -0.5797320433824767
H 2.565378044741421 -0.24396846072162212 0.8947848957497689
H 0.4827154777392029 -1.507677013102159 1.3064798866429501
H 0.3778476629651678 0.3051152174406844 1.5925379792253758
H -0.6044696028402566 -1.3139148620276435 -0.8336599466546207
H -1.6953588760499314 -1.0456431030363216 1.7635510084624277
H -2.596762480611233 -1.4968276621432188 0.3054266207098903
H -2.5264132166277244 0.2469332363723205 0.8700545767248564
H -0.3767641275556125 0.8223603040708798 -1.833657149186881
H -0.6054182515219053 1.6913170062946656 -0.25047275286641063
H -1.9769452793628 0.8990664822841529 -1.0765749160699973
