14

C -2.009206997546761 -0.6994048105228523 -0.7660773648897026
C -1.4116338399786554 0.3449370827970342 0.06805552460482456
C -0.0948986555047686 0.35210177711444024 0.22615723892151587
C 0.5397133882094088 1.4115108483550578 1.0756238990465894
C 0.761070877959081 -0.6299694963007871 -0.39354858450262636
C 2.0606112332345616 -0.6204025646765956 -0.2356782865702676
H -2.3504954498986823 -1.5886308295957432 -0.23562160739103497
H -1.5172723644448467 -0.8714113574391289 -1.7261119319682126
H -2.0136918805975745 1.097273652327499 0.5490818676602567
H 0.31089091326506796 2.3885121408053527 0.6010374884613607
H 0.15330389104400136 1.3613227098630662 2.116225863571462
H 0.3187716260639459 -1.3950585421502397 -1.0050984970319825
H 2.50974737857054 0.16455454226544242 0.391206337093664
H 2.7430898796246885 -1.3153351528425312 -0.6652519470058442
