17

C 0.22239563055716804 0.5368813166720694 -1.063702681619177
C 0.7264979714209872 0.23848102158480045 0.30472742420444626
C 2.1136985122813963 -0.07884849824709134 0.49120460363806057
C 2.9520484398216413 -0.11459252665808951 -0.5046759524185631
C -0.1476489652754942 0.28269893147608854 1.293683505773801
C -1.5393250298035523 0.60240333842574 1.096993827613814
C -2.191943413265985 -0.10339276982477388 0.22667044794119998
C -2.7760169374568675 -0.8746706332333987 -0.6627875759796856
H -0.07981859857661261 -0.36887619187830584 -1.6164421222627217
H -0.59492978812901 1.2652494905508826 -1.063746940453509
H 2.4878541953101045 -0.29673270262847706 1.4814034881775586
H 4.001627675578207 -0.3502930273424237 -0.3948430387566554
H 2.627777927260757 0.09769001250799898 -1.5294628693833603
H 0.24286971871799562 0.05924848739623511 2.2990045111675297
H -2.104962943182372 1.3597622074056028 1.5875438638491808
H -2.7282981423971058 -0.5007837585565792 -1.6635338487463298
H -3.211826252861893 -1.7542246976502247 -0.28203664274561147
