13

C 2.8566346576220267 0.41401243697264817 0.28580878193983533
C 1.3862228798600622 0.30604921904903093 0.4603173805130798
C 0.336375373141744 0.4380964029669354 1.2918928475268754
C 0.09534614016553064 0.005078422703705826 -0.083582273415861
C -0.7528024439036685 -0.3663002017976666 -1.0279630894618612
C -2.209458702564338 -0.4400880219988444 -0.7430119454696413
H 3.1935088633063984 1.3659217011973637 0.7363079854957244
H 3.319668353426953 -0.4767507768065522 0.789190561294272
H -0.11155464925833124 0.6725375223662391 2.2486996864161064
H -0.413039593524815 -0.6185242918462954 -2.0054510249913204
H -2.4070598904679223 -0.33491173600905866 0.3590523779189831
H -2.6725922538602673 0.43672140859462677 -1.2353012045015939
H -2.6212487339422585 -1.401842085391377 -1.075960083265001
