24

C -5.502525425234528 -0.9089041441668199 -0.20349319814923264
C -4.041764769636009 -0.6147038281481979 0.09611502469184345
C -3.260423431873855 -0.9082424386166595 -1.0980053594572894
C -2.0851710586727856 -0.3213241000699313 -1.1670949963776427
C -0.8886599360062705 0.21449571965866435 -1.1082472272652446
C 0.11884579740994038 -0.5545514169176876 -0.46697354151153203
C 0.795068146360554 0.03359591579251248 0.4909067939488839
C 1.4671910993881094 0.7392809737983203 1.3596025337540887
C 2.5952963606363233 1.4674990436265856 0.8580533177461567
C 3.4390680391113286 0.8138810853754842 0.07341127574476014
C 4.414678006506979 0.09401822249180027 -0.42376080149391643
C 5.336955143463476 -0.6053322511505298 0.5101468678352346
H -5.98795764320512 -0.010750137904141375 -0.644887498560161
H -5.534095013856422 -1.69142396138875 -0.9850296240318986
H -3.989189537703431 0.4851087625085243 0.29050176866667127
H -3.697952661769031 -1.1761267547060865 0.9958482960943704
H -3.4776502862555474 -1.5205730256220373 -1.9285991397632563
H -0.8443547137208243 1.1703231344492835 -1.5583901538809517
H 0.43584365419814614 -1.5617654363502 -0.6329219460649608
H 1.0814155032188575 0.6834348055314795 2.3520653467074215
H 2.8417560747157893 2.497681108004286 1.0494772534666652
H 4.845302514663811 -0.8761269553061389 1.4555222638166498
H 5.773750249711794 -1.461781449643244 -0.03399338418043512
H 6.164573888548902 0.12546325116652485 0.719746128263778
