21

C -2.036350250600856 1.435163326037911 -0.8945794396169412
C -2.4183856881631587 0.16517110628682952 -0.2625732044960089
C -3.8101887665349357 -0.3292863821923819 -0.43672941128842746
C -1.552182869830381 -0.5276000828640491 0.4454449499602903
C -0.18097303345189072 -0.014994124742110638 0.6017357176732935
C 0.7154888873478397 -0.6860755246426007 1.3069877141014115
C 2.0549833868467124 -0.1678434759301748 1.449189044715366
C 2.803120385773823 -0.07915303706244414 0.37646538913189
C 3.7409506369104144 -0.14440660130386715 -0.5206635577861026
C 4.7123932627689715 0.06969507975108315 -1.3616520343233938
H -1.2485392527102066 1.3338168987318115 -1.6568710732099843
H -1.6193250523329084 2.093122058922966 -0.08279903189717171
H -3.8037008268691235 -1.1657205919048106 -1.1697185730669497
H -4.230048238260033 -0.7321409177905284 0.5261984217631523
H -4.5045630432789086 0.47743760217696546 -0.744589449421642
H -1.8338622841200378 -1.451121331659235 0.9037230991751825
H 0.09939837701543525 0.9179301516468593 0.1373631284727431
H 0.49308747479995046 -1.625582711803557 1.794872958962545
H 2.382946332082805 0.12414812045346361 2.4314749644686806
H 4.593617889254227 -0.2448946157135823 -2.376199039717109
H 5.642132673351973 0.5523350536015388 -1.0905838317019807
