17

C -1.6044596094345578 -1.5914467063764508 -0.4202473300115369
C -1.3725808141479843 -0.1356269524458467 -0.07309050667610312
C 0.02388203898338218 0.21047536257086183 0.45303690909757266
C 1.0632654183318477 -0.10639272488355027 -0.5034087979947053
C 2.2573804083156324 0.3072689872913719 -0.21860163602444221
C 3.4888752595017207 0.4753903571143152 0.16247519133465696
C -2.1937669242349154 0.9030885472013772 -0.6177275477110821
C -2.482988418975082 0.4691656182299929 0.7037986967018406
H -0.7285697607552977 -1.986660881095623 -0.9671944563729087
H -1.7443767338324003 -2.214919329587999 0.5000038786659814
H 0.11313029210058323 -0.3859678936158892 1.4061451497946624
H 0.05134082138929109 1.272441225517162 0.7961418225143584
H 0.8323339950221885 -0.6449707096136468 -1.3708715984102176
H 4.056453972278063 -0.21988482392642605 0.7030208908266888
H 3.901990412792894 1.396731856209902 -0.1171759534030411
H -2.496378575718224 1.591762278867136 -1.3972742612500353
H -3.1655317816171618 0.6595457885433207 1.5245393699291834
