21

C -3.5204234249528468 0.9327372097726646 -1.2561963199543003
C -2.7621411409783416 -0.09480368092264058 -0.48251764627293825
C -1.803812131901947 0.3074136565541366 0.3129639124836954
C -1.004451644231956 -0.6335627668905507 1.1133166016231328
C 0.06870125121618553 -1.2887422477350594 0.29043686090918797
C 1.037841364763965 -0.3115019728968821 -0.30412026353684246
C 1.71709356856907 0.45318556177590674 0.7307162608098043
C 2.917882634743732 0.902293475422148 0.42834237026231176
C 4.104414737461568 1.3116262952376827 0.046280757103364885
H -4.238161595083409 0.4117369256614244 -1.9065835683202292
H -4.1444743408036375 1.5676159388833146 -0.566451396898645
H -2.9741958142684792 -1.1500727945578615 -0.5549665135029574
H -0.6284907887089214 -0.09803037916354712 1.9973068924035111
H -1.651746024922262 -1.4590504887599423 1.5074666568704573
H 0.63616055876512 -1.9946421188599064 0.9199374760072395
H -0.44017435587852266 -1.8942974175670715 -0.48847385146590977
H 1.7762504823406833 -0.898649644761259 -0.8939290426718411
H 0.4993201301762545 0.32623024185745947 -1.0496005492757507
H 1.3986255181334004 0.7126259717949432 1.704865842206531
H 4.895650554557411 0.6380175115950132 0.2605432882845803
H 4.116130461002747 2.259870723559996 -0.4264748979891462
