37

C -3.132068033563605 -0.7317932602355062 0.369971163994262
C -2.0301101666269057 -1.676250964379752 0.5644400340068166
C -2.2403296774844645 -2.9297788239478235 1.3384089627664886
C -0.8396209769983485 -1.4419539444696141 0.0647122525313393
C -0.6176923768987849 -0.1861874934006143 -0.7112502936908847
C 0.5784423231156921 0.5271627491688843 -0.31784044293587344
C 1.9162506994373587 -0.05915485385890489 -0.5997060375123846
C 2.348991795627122 -1.1002229789255769 -1.1491607842849776
C 1.8249692475494015 -2.2654301071358374 -1.7956309254023615
C 2.63036457234594 -3.2209766840707457 -2.2747399224689255
C 4.089141368852123 -3.057529746954779 -2.1267958844633648
C 0.5988324785981979 1.692203200395271 0.2525188403572515
C -0.41244300731056377 2.627743802505043 0.6709826317610714
C -1.707767118599631 2.68585810926531 0.6481037150219845
C -2.2186322093361444 3.941889554867003 1.2438479596936207
C -1.1884227652641575 4.6435055643856105 1.6287676934506137
C 0.030228336670542432 3.930110392442216 1.327161452366025
H -3.29877000512251 -0.05050865166270722 1.2274052123116477
H -4.075345270265213 -1.1996723003132777 0.014669902477866923
H -2.3988500632643572 -3.772337836185509 0.6416236058874367
H -1.3147580822147158 -3.19963154657015 1.9236179898900259
H -3.040564104985939 -2.827586803423227 2.096029865146684
H -0.00329925146722756 -2.1296664685146944 0.22429469421699966
H -0.4420728070974049 -0.5793365198361654 -1.782701832335264
H -1.5509719005769937 0.35084797028806364 -0.8086117204852611
H 2.7551091258896356 0.6301564401310198 -0.20620119767188821
H 3.5176432887150266 -1.140846019762932 -1.1348095690235098
H 0.7913198522607481 -2.446340133368988 -1.9489337316856006
H 4.3751836328295255 -2.9598375986790924 -1.0663090253412122
H 4.562261660089717 -3.9624919456671814 -2.586753464060743
H 4.385696512382981 -2.133665657965595 -2.655869992863559
H 1.6888321561738224 2.040828756871017 0.4662829268757522
H -2.3501544378287544 1.9299463796510128 0.24973831362714982
H -3.2786277882828907 4.204195699255926 1.3304828575649728
H -1.2204093242120666 5.639597642520074 2.1160464917052555
H 0.6009269625955451 4.533920254691761 0.5654369382774923
H 0.6667153542753782 3.6932338228511368 2.200771320297725
