23

C -2.782461159971049 1.1394611640391348 -0.9629093276328744
C -2.568827308266121 0.21447768061293987 0.22638333368758146
C -1.1927338942628463 -0.3749449034109798 0.08508858369555307
C -0.963883169645062 -1.170614655937386 -1.1645800836644447
C -0.5178994305828473 -0.9664031673151617 1.3162184187198425
C -0.10877540698618765 0.32600173111068553 0.7930229396138586
C 1.2014387807062028 0.6388807308806553 0.18869769984025958
C 2.358239141499472 0.4165355952651644 1.1187941867230882
C 3.5528271874536728 0.4725700564533015 0.5512863196405032
C 4.616106124477137 0.6934559610856815 -0.17071480993512372
H -2.748313598225064 0.5387818915665459 -1.8849968384083111
H -3.7732055073952737 1.6170725102271417 -0.8087524392861855
H -2.6023610233542827 0.8145808343857459 1.159376004074433
H -3.3647383487644955 -0.5612643528445139 0.2703422436068385
H -1.7849428718231646 -1.9405953921492511 -1.2101893670795862
H -0.013622422483399458 -1.7741021269085684 -1.0823571125377327
H -1.0284603045391236 -0.6013006590361253 -2.0920813798059803
H 0.15176992773444828 -1.83677552967664 1.1902763810618597
H -1.1837146238459 -0.9976352383652168 2.2236197750357203
H 1.2338448124378214 1.7177682090724435 -0.0712304219759102
H 1.4061467015618772 0.09743973576983592 -0.7695555030537807
H 5.045823183407068 -0.12875544739604086 -0.7113729784802932
H 5.067743210866845 1.6653653725706385 -0.24154492701545763
