18

C -2.2300008834155194 1.372642732315985 -0.34439792377926076
C -0.8732767427756171 1.1661476573860339 0.31136123949047656
C -0.2531798377976492 -0.09929319653467122 0.043983832897623795
C -0.925596805062879 -0.9079547829770629 -0.7205468041066223
C -1.5810891058020389 -1.8628389499404052 -1.297109774291265
C 1.0278345163833296 -0.4699430443634133 0.5781617464665427
C 2.0473739868302374 0.520759301891771 0.08987029527214795
C 3.236437087064598 0.14569928633700904 -0.36391563169233837
H -2.9997729191422287 0.6849430043493674 0.056529533853357794
H -2.5420130299055037 2.4103106289315344 -0.11414048205609546
H -0.2193773019093322 1.982801271825806 -0.11291636009943022
H -0.9890680353470539 1.4309156482899645 1.3818648947015668
H -1.4554945021804526 -1.939411992739401 -2.3312808569847974
H -2.2033679029755744 -2.5315532963378358 -0.7908311518038799
H 1.1222091035876733 -0.4640663593875123 1.680614632425037
H 1.4045954592480463 -1.471712574839724 0.2494615985697756
H 3.5129005318592412 -0.8806529191361759 -0.3984298013920447
H 3.920886379757139 0.9132075831278791 -0.6994676391475743
