22

C -3.2324960126174 -0.07288384584010149 -2.135702156507164
C -3.4570292873107826 -1.0649520240431196 -1.0940500324211835
C -2.8817670709391217 -0.8255487217055407 0.05790232543718539
C -2.1640297929341887 -0.5763986702257431 1.1326531058708627
C -0.8645443510063562 -1.0723712318889174 1.1834839104562909
C 0.00045010737850931357 -0.24165309562930554 0.6825586312787578
C 1.0330798741539047 0.5406465478311194 0.5087245645220667
C 1.6043299611252115 1.3695207335700108 1.568617989234654
C 1.5215177531376998 0.49338549242067514 -0.7930504472344345
C 2.7598798557191633 0.09837645839791025 -1.05638409849538
C 3.9947959782309184 -0.3182543191240803 -1.0823900393176416
H -3.893572982438287 0.8017081704314163 -1.9647300963019356
H -2.192659383451806 0.21582788597371325 -2.294479605435364
H -4.0147329515801315 -1.9616047494293953 -1.11201064572138
H -2.7186869050031808 0.004484467041678391 1.8464158814218596
H -0.6552101852297425 -2.016483468644707 1.5916596448436666
H 1.2285629708391013 1.0629192345830678 2.588293483705464
H 1.3603635004170116 2.4446941363441024 1.3755927533706223
H 2.7083640015842043 1.292886649755107 1.5697987950520051
H 1.0209600271973143 0.7476969631355225 -1.731281121951798
H 4.729094088628465 0.4488101901566742 -1.0086175659156928
H 4.113330804099549 -1.3708068031098892 -1.1729370818262164
