12

C -2.1070642794576937 -0.32109841875122475 0.022379568612775395
C -0.6844874031297077 0.048541128180068484 0.14359257386894314
C -0.34421944314232483 1.3727048665165114 0.6935955433318846
C 0.24303077849806687 -0.7863478232963275 -0.23101104287549876
C 1.6952354872793953 -0.5785235204121585 -0.17875047876009434
H -2.213989666166121 -1.2061271451254219 -0.6708935802420027
H -2.42778833929152 -0.7173701505769755 1.020239170165655
H 0.6962472699515256 1.6715890664095934 0.4373401226331686
H -1.0610161420905528 2.1623931059017756 0.39460507964817143
H 2.1760526359679724 -1.5892615827783034 -0.11399789851547183
H 2.1068378579471427 -0.02717330716332413 -1.0476862217065621
H 1.9211612436338301 -0.029326218904176284 0.7684185843256779
