12

C 1.978121098143931 -0.660684088646104 0.6989584414735183
C 0.7912876439856665 -0.0021050723409897897 0.07850462969527816
C -0.5535916816252706 0.08450741973967499 -0.10029812654856438
C -1.8483183114823118 -0.5070408591237876 0.26397170498456934
C 0.2563230307136007 1.0774812254168153 -0.8232326736571899
H 2.530502211435847 -1.2165750908245356 -0.059383604964958925
H 2.583700263270869 0.12741814720013034 1.1643083567623174
H -2.213192232287019 -0.15064663812416096 1.2669090299191343
H -1.796838267442823 -1.6158672973045238 0.29952695389548273
H -2.6252282877950734 -0.17430259003911136 -0.4563283080319986
H 0.3420659590001212 2.1165798153186897 -0.45903263536188166
H 0.5551685740824619 0.9212350287278684 -1.8739037681657242
