14

C -0.41861035017996717 1.4002004942071442 0.396608700665458
C -0.3987322255688624 -0.036684397576982684 -0.019129233415439414
C -1.7200303096925107 -0.6732995545762387 -0.2677674196328491
C 0.748327753323035 -0.6557857671349274 -0.14310802149054547
C 2.020125708621073 0.025541263329876523 0.1160794427858704
H -1.238232181266279 1.5954098603069278 1.136627520483971
H -0.7173087660764976 1.9641524801422567 -0.5354161350123997
H -2.4780974825893622 0.0941946443829951 -0.5618961185386109
H -2.0597138419193373 -1.0815784161376385 0.7089710887992525
H -1.6844335089691214 -1.4743306740882849 -1.0154689990416628
H 0.7819387931224934 -1.7001260236816413 -0.44434405357438905
H 2.567019523002168 -0.5796867933993548 0.8914509550103541
H 1.9264771190019694 1.033355141051325 0.5192014500664505
H 2.6712697691911753 0.0886377431745381 -0.7818091771054657
