13

C 2.7917931084965373 0.40368509612884257 0.42105100996949396
C 2.015963534354793 -0.11933048858858218 -0.7051033825157083
C 0.7709608794415572 -0.4003678598222225 -0.4533855520595387
C -0.4867841543969315 -0.5579364362292277 -0.150351777865324
C -1.3516109582938798 0.6110717302144127 -0.32709091325845785
C -2.7580673619284406 0.24255944875227076 0.08616769602930308
H 3.1150986916741674 1.4438030019448211 0.3133615349521094
H 3.6065799236381126 -0.2755026807509292 0.703884787209186
H 2.315427948194948 -0.30271602150296223 -1.6966558590706387
H -0.7300210203323308 -1.523524888559932 0.19170613832912714
H -2.8491358871630657 0.37734880925643083 1.1917325441368716
H -3.489956661793341 0.9281615713712074 -0.4130060213921231
H -2.9502480418921424 -0.8272512822141218 -0.17556292005682084
