22

C 4.25642024355465 1.027781303819215 -0.21724586594630332
C 4.1309340366074325 -0.3081630851989467 0.3545573390572523
C 2.9645728276899903 -0.8914565754729202 0.19947088147108283
C 1.7292926105904678 -1.3540875897629234 0.08550800292061622
C 0.8389571801373326 -0.9989121704181931 1.1369634118578316
C -0.32613111134608114 -0.5418063392839721 0.7887932090773894
C -1.4519582257528543 -0.10126645925881436 0.34019685520602566
C -2.587479165871311 -0.9610997353688827 0.06766209313594722
C -3.5858692896348123 0.02991126967088202 -0.4673855858400238
C -3.0917100849543884 1.2589535348310352 -0.46781095795018196
C -1.6976189327572377 1.301068515832557 0.05934158887665544
H 3.6514913555051534 1.145251174968052 -1.1151885943977577
H 4.163885353626852 1.8295396495344893 0.5272233866919708
H 4.83376344670127 -0.8926617911430063 0.8821851868824132
H 1.5907233518486845 -1.92376112515395 -0.7818093930755277
H 0.9757417210151262 -1.0481268065686704 2.1877245076536553
H -2.9708129944184196 -1.3672303541425235 1.041755514416753
H -2.4182415280088234 -1.7541306897464803 -0.6781420946704686
H -4.5994418820002645 -0.22257326728040402 -0.8164276745057187
H -3.65605869944749 2.1399950250153124 -0.8197474577978358
H -1.7180102569458804 1.8855362056091172 1.010345337179792
H -1.0324499561399043 1.7472393095191368 -0.7040821551952429
