19

C 2.169891932720216 1.669367306181409 0.6009614011255627
C 1.9992890713331666 0.32934853382166596 0.0832354281908146
C 2.9672516904793524 -0.7135584672564944 -0.1701072784522759
C 0.7511524545488498 0.010838878302311207 -0.20126966190402443
C -0.4948996337107187 -0.3627493296405212 -0.3517026684978285
C -1.1229886553346924 -0.9394763907655483 0.7766897416644623
C -2.356665676113943 -0.6203816290902265 1.093973674085125
C -3.0973721950990005 0.35470846928543653 0.25963484023290906
H 2.1307622133714963 2.4007191592053987 -0.23209983598924314
H 1.4741372975753644 1.9754648994993924 1.3963801103014544
H 2.6593271506502068 -1.7370803584285808 0.1606100761082116
H 3.9720021789459716 -0.5424603794436098 0.25132493681058177
H 3.1008643684708157 -0.8072671241137371 -1.2855425059003667
H -0.8443198309855221 -0.16551759675490707 -1.3300772554738314
H -0.6030201905795121 -1.6515151972343498 1.3983960291076578
H -2.8366061534649525 -1.0522595407127877 1.944726795274804
H -2.881034532210236 1.4159852723560151 0.5549198895124976
H -4.180081682167689 0.1832542540880817 0.3878275867131934
H -2.8076898084287496 0.25257924069967236 -0.8130661416382572
