10

C -1.2111559218536336 -0.8109837134845537 -0.013200255992260084
C 0.035799861849777063 -0.012429106527104163 0.06086560065915446
C 1.324463851222102 -0.7341066715681239 -0.04619516891410048
C -0.04299767175575061 1.2948679472678775 0.21731388903502755
H -2.1108539134885773 -0.17267702760905634 -0.08643861513966532
H -1.354466471924564 -1.455329976866106 0.8790216840186078
H 2.185964834480653 -0.09921231437418053 -0.23623086464835097
H 1.2805776188031177 -1.6557993224732739 -0.6213114774495297
H -0.9904588109228465 1.7969754540731457 0.2926317816122532
H 0.8831266235897063 1.848694731561385 0.2676647775711882
