19

C 2.611630630485744 -0.07632029573934178 0.13310112204947575
C 1.5049775485401495 0.6566273872846307 -0.587780279733328
C 0.2559563606644591 -0.17099568671533297 -0.40537480685988087
C -0.8323137507690782 0.275743121038522 0.18577582664075198
C -0.9857677899625393 1.6642958406482091 0.7597306342040737
C -1.821321870598719 -0.8075909033076766 0.1718319755073367
C -1.1578043946948953 -1.9234097807131936 -0.5007342296928423
C 0.05561194714234883 -1.545600919143075 -0.8356970288914308
H 2.374174851962303 -0.20936991937279 1.2074473732243316
H 3.566492015918378 0.5055040436009449 0.05570071819430599
H 1.7830124389177904 0.7387816082873074 -1.6375615089945084
H 1.397939609575608 1.6385774379756866 -0.12557223958031413
H -1.8558002224690333 1.6757917916711313 1.4573618268705095
H -1.2072427264167471 2.3946498523992026 -0.04445975570379462
H -0.04888226890784412 1.9341521865412818 1.2836808070806858
H -2.781726970824203 -0.5131121157043224 -0.30910756389920163
H -2.021433287388938 -1.1570534134412231 1.2281181539791748
H -1.6253912623404412 -2.9076485875902347 -0.6820459156986736
H 0.7878891411656787 -2.17302164771975 -1.3544151086966658
