24

C 1.5616157336854135 1.4104263977572076 0.24367552748252042
C 0.792916489493473 0.23255289096094012 0.7328385080492227
C 1.5398949698099105 -1.0155581778452056 0.6057536286805039
C 2.83778641221884 -0.9190851477159306 0.43403797138802735
C 4.112897097905365 -0.7085985796735187 0.26332419439079474
C -0.5290565603435574 0.04841867689549926 0.06488123023434668
C -0.7675677934571614 0.8774295836495889 -0.8812138842766883
C -0.7948219898340548 1.578684320825795 -2.0046311234747844
C -1.4545541002393485 -0.9971234764023543 0.36270106701850874
C -2.809713110335191 -0.9088790294418443 -0.11144931597369169
C -3.4524635159892916 0.10810480174935089 -0.5712371147514832
H 0.9386885007873933 2.2874505707498978 -0.011056064774129645
H 2.287950476160996 1.1536108232897522 -0.5790883865311237
H 0.5569837468534753 0.3904011800117861 1.8185418484170002
H 1.1901972813613613 -2.011706931794619 0.6309963280057006
H 4.685375067956407 -0.6552233876771758 1.1658603871900328
H 4.429788439670559 -0.6145415567719982 -0.745573787100705
H -0.2779487940181948 1.1719274680919645 -2.8139766476969714
H -1.3638967634157657 2.4694204666404564 -1.8809156282237294
H -1.512990429730121 -1.0723225295300003 1.5142489187828567
H -0.969935527198861 -1.988436854010192 0.08031022527735189
H -3.371346568064472 -1.8994462547013573 -0.06087480754318637
H -4.511420676320412 -0.041189158203250816 -0.8928363666724101
H -3.1183783869567745 1.1036839031450703 -0.6655584021968279
