32

C -2.420034901692393 -2.097427050757606 -2.5535034754805093
C -1.4288404510454713 -1.3266019093584023 -1.7149424887863114
C -0.4621101591953785 -1.9384374128735011 -1.0187264921651502
C 0.4556137772214884 -1.2005065809799347 -0.24032373787253017
C 1.4638542779417991 -1.9460780745530288 0.47617335554511336
C 2.396237583208263 -1.493525369637794 1.2403708185589717
C 2.72687712913179 -0.1392196326382996 1.617570944104267
C 2.398430682690021 0.31051213679881884 2.792318288456908
C 2.2993144293353414 0.6216354141681205 4.077424586969695
C 3.413410113944834 0.1518408748887172 4.962519442654359
C 0.2997600881749162 0.1614311323899573 -0.239997878954254
C -0.6983740181833704 0.7979237756794788 -0.9583846297920793
C -1.5769765456283562 0.08112867499293715 -1.7045649027384062
C -2.6309337056248 0.680731879451642 -2.468174968617429
C -2.9473024831440533 1.924380382918602 -2.607978122370334
C -2.3654765706527594 3.141219148679482 -2.056503641484003
H -3.422929835041305 -1.8631839192118496 -2.0988325490339697
H -2.2602563830332625 -3.1804618726931038 -2.3331208209195715
H -0.38911460161804623 -3.0352432272053047 -1.0597508248662586
H 1.4362341721422198 -3.0492699044932245 0.3565194640958055
H 3.056919343644938 -2.313030652821951 1.680469553397567
H 3.252071698247797 0.49819449318943265 0.94852072404532
H 3.8091359338115636 -0.8228684700272502 4.666479976149743
H 2.9337892189170365 0.007210364421313547 5.974633982092637
H 4.243098604039898 0.8690613309156704 5.000959191964022
H 0.9980460985953776 0.7593528331355661 0.35557537342338474
H -0.6934718832559752 1.8622635044268614 -0.8589404142354513
H -3.290271777244795 -0.05736762594197854 -3.0390727139355356
H -3.8539804050670514 2.0545651202767377 -3.2964492636627507
H -1.3511212363301808 3.2856392036595268 -2.4353817653704253
H -2.4436213387754693 3.227965379797594 -0.9567578958061455
H -2.9479768555138133 4.0281660534021135 -2.5013160585936935
