20

C 3.91847454751518 -0.006958068667775325 0.42958829474640753
C 2.6605062554372765 0.5475179791292484 0.9113496212043815
C 1.621202447862855 -0.27245623139309405 0.889145653596312
C 0.6465183160171005 -1.132970443937894 0.740203091328598
C -0.029791741388355716 -1.1048544326495262 -0.5591376957788947
C -1.024699208378645 0.05597174859724808 -0.5334383945706853
C -2.043696528981509 -0.12866282295641207 0.569562224452237
C -2.978477540521903 1.054090687784124 0.521692438208171
H 3.7521315917282645 -0.54404221099973 -0.5227851094654207
H 4.689379436038876 0.7673027261719839 0.3487670402922074
H 2.4173315633542023 1.5024449108494975 1.2818650326879322
H 0.4745795225101607 -1.7415251836343848 1.5834310975030732
H -0.5584233242397763 -2.054184557729121 -0.7988566870655675
H 0.6554689921299772 -0.9178807194964691 -1.4109008016483995
H -1.5474158420240056 0.09489050731212076 -1.51347716115132
H -0.461853806501642 0.9848315875043159 -0.3489122762327564
H -2.550585147571458 -1.0940917378120971 0.5313590629433702
H -2.506329660562172 1.944896540856821 0.09355759074970688
H -3.3186467305170306 1.274913151611607 1.5435732878534356
H -3.815673141907097 0.7707665694596304 -0.15561767997132908
