21

C -2.5278286522799824 -2.668114872816432 -0.8332940032702683
C -2.342924576456799 -1.3722567997893924 -0.1560046757162724
C -1.297148955696533 -0.6286224558650079 -0.4274542911496419
C -1.101315910085151 0.6790851882283997 0.24953377066736884
C -1.064817575045244 1.750875505882488 -0.7767196390142443
C 0.08370431049587784 2.3557764583638767 -1.0235389446157568
C 1.3699098309036817 2.0468747880250104 -0.34557661954727836
C 1.7982054087770245 0.6948093101591711 -0.6626759702092145
C 2.60322715681072 0.11100710363655474 0.19659120632676888
C 3.407083492802963 -0.3823845291054295 1.1112427399840104
H -3.578938828547818 -3.045972949607477 -0.7382191850090426
H -1.8106938586410632 -3.410153212804354 -0.44194091067097935
H -3.072779952741719 -1.0471732118375028 0.5592256387289162
H -0.5693002254497341 -0.9577438218562648 -1.1438497583724232
H -0.1662310246719922 0.6935664753800894 0.8245099818822813
H -1.9796115064657849 0.8910298051019189 0.9131129611272569
H 0.07886176796295781 3.144932525631042 -1.7885638040167233
H 1.2524005818875843 2.1495024659267368 0.751652749848896
H 1.559582160968219 0.08835742908498109 -1.4974436466952037
H 2.9189392089704276 -0.9005241746154685 1.8933591562644412
H 4.43967714650544 -0.19287102712050314 0.9414045635630994
