27

C -4.357121224197616 0.5790883803065892 -0.8449697518549757
C -3.6500271101592427 0.379212020251067 0.469991673053214
C -2.3541745692179528 -0.3841183584315823 0.31155215555364596
C -1.3867799481984877 0.33659465456292026 -0.6016698274155408
C -0.153669301807537 -0.48479884111783456 -0.6938426884932652
C -0.030666709504755148 -1.6107459186940039 -1.3742853137703241
C 1.332806467985056 -2.12898378904341 -1.225452916406697
C 2.0287888937579117 -1.3104053791670174 -0.45309255056955816
C 1.1285781643460044 -0.2067018713554062 -0.0617239654841848
C 1.478464088575503 0.7993637282109017 0.7088213556895101
C 2.790329953267459 0.9694758614674605 1.2819802104719042
C 3.790965992652688 1.0566654337185568 0.4478084347051782
C 4.723212756736559 1.1614912518557137 -0.4803141689660732
H -5.392951117900857 0.19905216452801114 -0.8475413080530435
H -4.35246312294058 1.6677348864307162 -1.1011791465055536
H -3.5007109753844357 1.3076170945736612 1.0281426051524465
H -4.31412917912857 -0.2671700329546386 1.0978372358570538
H -1.9080330759393356 -0.49587433749858606 1.3103738868328996
H -2.5599634463855487 -1.3753810187936581 -0.1375352938425358
H -1.1731026282206187 1.3649649451077532 -0.2725646157730016
H -0.8098572037434042 -2.073679060874792 -1.9474003699518694
H 1.745257140973163 -3.0442759286424814 -1.6681418364036342
H 3.0619325249819047 -1.4007381565662815 -0.14591095849302121
H 0.7293470130784385 1.546486090990572 0.9243474908589137
H 3.06801537794102 1.0354161847238046 2.2974747764625816
H 4.916862006598923 2.14575774146451 -0.8134517289316832
H 5.149089231834245 0.2339522549475041 -0.7631672364382067
