16

C 1.475125055976075 -1.893095856262736 0.49721907270892457
C 0.8313388257958781 -0.6920553259765024 -0.0033504306233714397
C 1.5696507120587233 0.3662002625033721 -0.1544600448377532
C 2.3800120592947183 1.405105600836677 -0.29900851267624906
C -0.5397952217577597 -0.5047384072146099 -0.36361872544169055
C -1.3032163030867243 0.2608678448545832 0.3930317624643247
C -2.7284037947314683 0.45991266199476794 0.024858233276861468
H 1.7602542678927606 -2.5129848009170073 -0.40548094552368263
H 2.368633260309205 -1.7097715034518712 1.0865253888421202
H 2.8340878120881254 1.4624670358226248 -1.2455055181785182
H 2.4374916566782634 2.0079631801428395 0.5635721353318558
H -0.9836978005144154 -0.9825276347973243 -1.2596400104862577
H -0.8461306301417546 0.7108596251227568 1.2548501407084673
H -2.8187635946655036 1.0239788072098934 -0.9328352406771268
H -3.2608458447031734 -0.4917174388716434 0.020305822889300496
H -3.1757404604928134 1.0895359490043384 0.823536872222745
