46

C -5.7041670096310995 2.828943240080127 1.7930161886140685
C -4.981256685658553 1.6799805722545407 1.1344751043233499
C -5.545518883731925 1.1005850512143247 0.10075698669640612
C -3.680583762698862 1.2188555189524042 1.6335066535390288
C -3.197590829757236 0.08797118511383908 0.8121812480545901
C -2.0530539887800963 0.19490006592892428 0.16589990001559024
C -1.5542795952550712 -0.9588977330494151 -0.6756085846076889
C -2.6130725758629376 -1.852113775822615 -1.0317627855211804
C -2.595302673818527 -3.1504662617880115 -1.0583285501217596
C -0.2910718647616273 -1.4112873631106158 -0.20479536938319773
C -0.16952633254734611 -2.5262905039311603 0.43337781512524187
C -0.03360148744623057 -3.5015621914266344 1.3156468980091955
C 0.9736734736145236 -0.6754603045786356 -0.30265176960082263
C 1.5387690954041764 -0.014878178326550162 0.7480678838539946
C 2.7361451998899358 0.6464651163278133 0.5389664980632456
C 3.3736425886864905 0.661624156170225 -0.683772595479114
C 2.7992550056344787 -0.007081218354319439 -1.7427381799980386
C 1.5894155611892664 -0.6770577351100453 -1.537234370950126
C 3.6269030905206345 0.13249375764075091 -2.9347209059956922
C 4.679334722700998 0.866732991498068 -2.6139999102151457
C 4.629046348387329 1.2635743582733006 -1.2046330381563857
C 5.746681784755299 0.7376129761637241 -0.4024962516249234
C 6.183440753377666 1.5265206012377504 0.5449697324536588
C 6.550831870953486 2.3493901154966865 1.488879362825207
H -6.80271246860736 2.6729281095083084 1.688132110803349
H -5.380210347525713 2.9346033312794075 2.8361884333924725
H -6.517151619635498 1.434210095489492 -0.28343568461431523
H -5.111853259993342 0.26886741385004936 -0.4436156113043285
H -3.7358172459707375 0.8443128351877062 2.687990370835843
H -2.963493777173315 2.056044636323303 1.651469306420003
H -3.767961383051912 -0.8144277978200789 0.738153945976556
H -1.4422731559563209 1.0779612164627748 0.2096233293396038
H -1.2657718293352411 -0.35289772367938843 -1.666732463858743
H -3.602126114281902 -1.3693007144270501 -1.3317435471412942
H -3.5056961630372396 -3.7177068950947763 -1.3568693525023212
H -1.7427037025151733 -3.729129938087113 -0.8295692819468231
H 0.08188625169046505 -4.445369748872616 0.8323050857623782
H -0.06040665828706557 -3.2227891965539968 2.3215377588076826
H 1.0346242911739967 -0.0323210197536152 1.6970459493882462
H 3.174610373852712 1.1696890103848876 1.389424712612086
H 1.1547901440332318 -1.1915237946667054 -2.366484231152318
H 3.384024286342505 -0.3094875191809492 -3.9077014073278638
H 5.449058315048298 1.1153509759217084 -3.3306467850210804
H 6.2493751536223066 -0.18368404453538933 -0.47823483926928445
H 6.049605744071251 2.2364746349911404 2.4241537072584785
H 7.312089360370514 3.0376416924181355 1.2020065336221564
