39

C -0.05192286639452395 0.9615520591940632 1.5912836273472735
C -0.5407710041120625 0.7911086443082327 0.12884614990428478
C -1.992293973972951 0.6078260203177478 0.2559384633454452
C -2.683693427584544 -0.440382794156723 -0.12818907683689015
C -4.128165350836413 -0.48082528226731414 0.06530648521105986
C -4.8147881130580465 0.4618321506504069 0.6029796181013746
C -6.303594397050378 0.2950836443486398 0.7444583560649878
C -1.9699852395765982 -1.5434421391510276 -0.7555784531585492
C -2.5918081132949653 -2.6247402806275613 -1.1659750890437808
C -0.5377386857549954 -1.3912959354401568 -0.9057886756072966
C 0.12891656309810498 -0.32865849963070926 -0.5078553348163801
C 1.5899325869979732 -0.25073351097900937 -0.7067278609895653
C 2.2756230133239543 0.7962938940447875 -0.3256091381229165
C 3.705441386683165 0.9165699998886611 -0.49829040570275906
C 4.352365915093404 -0.06864001707001909 -1.056152999695041
C 5.036807275202206 -1.178604945028479 -1.3057377179410785
C 5.393531398208307 -2.0221746322261005 -0.13209277422911017
C 4.4289957855175235 2.0736063346788036 -0.07160156747718656
C 3.839623805550232 3.0931471715958416 0.4933207649892832
H -0.4492338152326592 1.877684104848325 2.027733503293849
H -0.32691294502610235 0.043824930259050265 2.1615124843952316
H -0.3407064089918059 1.7699771550215262 -0.3815245504149971
H -2.5709928576278434 1.45426235327633 0.732019583388547
H -4.643577839428093 -1.378020542615782 -0.2746064523126554
H -4.444620778900543 1.3980232304229185 0.9823950851066625
H -6.759289890188712 0.5900246848759056 -0.21895992911855172
H -6.470679038527542 -0.7920275030958961 0.9418317849905932
H -6.707466754607119 0.8674326617264435 1.5786342992253022
H -3.64461792707394 -2.829971665609605 -1.0991068260405357
H -1.9384726911041228 -3.396342036891864 -1.6287259632320785
H 0.08421943965679733 -2.1702644266511726 -1.369606462589606
H 2.134803155885278 -1.0608539366843137 -1.1749292287861521
H 1.7330966439391369 1.6007893751546427 0.12955305295999414
H 5.467844500326879 -3.0738978167930675 -0.5336333998255366
H 4.60846207465532 -2.052611921712282 0.6318290108226625
H 6.370793049453994 -1.7900591671448096 0.2928093253968631
H 5.525323529593656 2.1533442317484073 -0.20333337805207827
H 2.785451751257571 3.1743345091764787 0.6934073631079183
H 4.450100243900837 3.9468298982386765 0.7963484649691063
