48

C -7.470465787757537 2.8986149281928144 -0.619494253232404
C -6.700288198397201 1.7546080876809005 -1.084460954094035
C -6.677689459155281 0.7119546946686445 -0.2782831369226985
C -6.631816052419201 -0.23525086705572323 0.6417638307014907
C -5.558557890094894 -0.11592718765054048 1.6170786280418932
C -4.343513651245666 -0.7761401824662895 1.0480125123356414
C -3.208541085200871 -0.16024761815310123 0.8302648099423046
C -2.700793337796091 1.1952199020469962 1.0077931149709358
C -1.47233490554435 1.5436356598973482 0.6911452180324598
C -0.5362972581509062 0.5637510131899794 0.13283342633201942
C 0.7189599645327889 0.4558838163592923 0.9274388018950092
C 1.836006760980278 0.09788279457474758 0.36111395230154963
C 2.8899358377601745 -0.5227319004192603 -0.08475453989728918
C 4.016466002708037 -1.0758817606183426 -0.3977644152156531
C 4.932125718587003 -0.36430431810520725 -1.312586515351473
C 6.379674117776832 -0.5241103767143813 -0.9144544225790835
C 6.669079076142859 -0.011386031744367928 0.42400317518438574
C 7.594092541634672 0.9144207195937853 0.5884147221925631
C 8.323260581843481 1.4244756805604917 -0.5497628282139967
C 9.24159323071787 2.34575685497367 -0.3740761942076278
C -1.0891103128181774 -0.7815299468325083 -0.027228128262756394
C -2.3019473549438927 -1.1564566005992098 0.27751764663279965
C -3.0438294899375298 -2.4337065201926937 0.19720444974617324
C -2.4863096708006345 -3.711835289895494 -0.31211865754656265
C -4.259602612934432 -2.17944324449397 0.66311431425553
H -7.8884637465520955 3.4409818694797925 -1.480782841757405
H -6.959622112316442 3.541361059243562 0.11324479972155202
H -6.144185690322351 1.6059752026131997 -1.9675734858750455
H -7.395684684130632 -0.9510071440467321 0.531591490804962
H -5.774885752812616 -0.685506339161291 2.5674639895618263
H -5.345562693907862 0.914105073905782 1.9418749351007314
H -3.3670108979244833 1.970055108828402 1.424873282422998
H -1.180407919256861 2.5971897111489195 0.863026194347596
H 0.6934178621894924 0.6775598761489928 1.9780107604563886
H 4.304462044717644 -2.033901310505382 -0.013350879607922507
H 4.8175016331348335 -0.8341278997891516 -2.313565134294119
H 4.67234923749782 0.6939010317304221 -1.3639217001789812
H 6.75074028871054 -1.5342867259628628 -1.1170983074318568
H 6.10449843393826 -0.4125132037623562 1.2695195873830314
H 7.792195204112024 1.279402777504987 1.5854447695420644
H 8.150158969281565 1.08110424013342 -1.562030651116904
H 9.465227475862122 2.7344332607083364 0.6167689627784406
H 9.815061912309684 2.7606679210278595 -1.1897835530849838
H -0.44070538199091447 -1.5758221458138724 -0.44338253355557145
H -1.4172226188982568 -3.838428838863319 -0.03826668692618228
H -3.075440304682787 -4.556874706963143 0.1361804876391855
H -2.6271149420247735 -3.8114529140805757 -1.407865770394726
H -5.069403082427218 -2.9200682103226545 0.7418127795764299
