34

C -5.012289274647308 -1.2642170804611457 0.8528081385641445
C -4.583550885172676 0.12080339093901653 0.8940172126017615
C -5.049595621058839 1.2353484860896398 1.6976451146041378
C -3.6075822137937688 0.4175110182359644 0.06724723961888854
C -2.5379986094501623 0.6803841254409355 -0.6688990310673165
C -1.2660917551674054 0.47788244243006506 -0.013945808112046416
C -1.0108899773964937 -0.957112642558945 0.21833692268681323
C 0.1590623423345421 -1.5275280555711268 -0.05821655760213667
C 1.175828628316621 -0.6897836493678337 -0.5962738229878344
C 2.3268713914821593 -1.230984955395592 -0.8663979493768211
C 3.510319941148617 -1.7767774828159635 -1.0054548465089177
C 4.376700068085 -1.7264520766279046 0.10029931360478933
C 5.588034888211394 -2.2666502145562437 0.007168415545186173
C 1.0584042652584436 0.6995159847361903 -0.86591112015229
C 2.0784423951342346 1.593653637138009 -1.4176505174429612
C 2.597389600932635 2.5892908664490677 -0.40142503198107937
C -0.14030889333061747 1.2393675420484165 -0.5726081539224028
H -5.210116088597046 -1.6312182601003706 -0.1648151401457492
H -4.293898434143836 -1.9118104156186522 1.4202864641824962
H -5.882465472364609 1.8210903575855264 1.257518081146227
H -4.229454819830729 1.9472917379771242 1.9817423324776584
H -5.415147574265486 0.8216731429687403 2.6822153431646556
H -2.8029529607635895 1.0007442633671708 -1.6317748856023595
H -1.8339020431369637 -1.5674120834112222 0.6387476354789006
H 0.26525557829145097 -2.5946588002377795 0.14335240848790165
H 3.628623909916066 -2.186639225079817 -1.9730747290789896
H 4.129754393193074 -1.2749708016849202 1.0354402992629002
H 5.930737721405649 -2.7512857567892195 -0.9099623257260439
H 6.307327059860821 -2.2658105244270095 0.8153003163038113
H 1.7326687097224134 2.151941694674542 -2.2851792377019344
H 2.8861611593387657 2.0940816382123812 0.5478406600344952
H 1.9045629622951763 3.428662192247928 -0.24796391098431358
H 3.5311778971920966 3.0134424782771143 -0.8292628015069772
H -0.3110782889998645 2.2906270258878787 -0.7483543384040242
