26

C 3.095691319313088 2.4032600998036826 -1.172607431751521
C 3.3573673909929576 0.9635465625243677 -0.9395548618768732
C 2.4515606395272624 0.0341881268117465 -1.1737640476274076
C 2.0293018990507687 -1.41715155467842 -1.1843683738715816
C 2.387678200109612 -2.666458587065119 -0.9351215201765681
C 1.0950780293981983 -0.42238071300243835 -1.615063272605316
C -0.05844449648544745 0.009140249528813725 -0.8215908082408535
C -0.6281910280880678 -0.8211244318371003 0.06852783306752512
C -1.788352216703937 -0.36575651803069276 0.8563617713144327
C -2.310951991767393 -1.2071769891658053 1.7109408784308124
C -2.3330753890120888 0.9810698403981024 0.6852996627971106
C -3.507383418042668 1.166004784794685 1.6144027855867307
H 3.386860865936722 3.04730784788082 -0.33923415156689085
H 3.563763510594464 2.669774829495961 -2.139261249894106
H 4.3350399418833305 0.6941153935584404 -0.5635739460713288
H 1.6853886027234009 -3.4575319035032672 -1.1098939341069496
H 3.3699318796458813 -2.932866800120953 -0.5577347210065062
H 0.9489309394627912 -0.34798512194785924 -2.7327523452837243
H -0.21561850728214857 -1.812927203572082 0.18461412433482427
H -3.1555601168554723 -0.9102903481483379 2.301021720165472
H -1.9269271512993305 -2.201424076471998 1.8529329170041389
H -1.5812550951179256 1.7727692958109742 0.8562934766458702
H -2.722165376333245 1.0723272331281317 -0.3471563755989789
H -3.249764655735013 1.08273604057084 2.680506461122419
H -4.317021299718648 0.45308567491589463 1.3423290852574883
H -3.9118824761972784 2.2137482683218344 1.4784463239516807
