25

C -3.0741291648097815 2.944971574691093 0.8119699113435246
C -1.9335418310068417 2.485017122791352 1.6222861561465645
C -1.2710687014697621 1.3957500937687461 1.2924299076945935
C -1.6345389025571746 0.6399255647199845 0.15553406431776873
C -2.647778037103008 0.7881162851717567 -0.817866257481523
C -2.9014092540668774 0.027099943725560197 -1.838652293105784
C -0.8533324058112939 -0.4167891658521378 -0.011182954467449976
C -0.09146339434275803 -1.4631273874021704 -0.2382463547975768
C -0.5696756876634083 -2.6638653803439505 0.40595835766178767
C 1.0349127962595444 -1.2035636629096815 -1.0618481233628116
C 2.225512870156704 -1.0048087289509795 -0.6270395445402631
C 3.4147239993078746 -0.6758751381125448 -0.2517311976750918
C 4.651012169977121 -0.5258790687953724 0.06768759952846352
C 5.868586589787981 -0.026819612743790352 0.008921832600363767
H -3.4826846134097855 3.859728023480801 1.2801436639270765
H -2.7128876446337267 3.184483779442718 -0.22680794137447086
H -1.6011064233726102 3.0201955055173766 2.510129296156522
H -2.333645990035851 -0.8590562337819861 -2.0752177442830564
H -3.7220751595949224 0.2805939724512798 -2.4970811104120116
H 0.16180783583529754 -3.5065689510201037 0.2607819619190804
H -1.5932212240875245 -2.986015793159489 0.12250805523928329
H -0.573150204982817 -2.5058742159377405 1.5246597592184898
H 0.8775173021853908 -1.1700480796341022 -2.1515227045265175
H 6.609033392769796 -0.40014214379848545 -0.6820982542233434
H 6.152601682667816 0.7825516966819126 0.6661173719008784
