18

C 4.054801130644051 0.05090542499306094 -0.5249533808831747
C 3.3256875351905295 0.43098765810953155 0.6795976783003362
C 2.050127448199485 0.14889233249700992 0.6984012487588647
C 0.7647348863466652 -0.08182054289820187 0.5777660825078219
C -0.012158604524764346 0.963445886887991 -0.01662166350986841
C -1.2974227110899028 0.8904641525024788 -0.24719012719073646
C -2.0631275988839035 -0.3224972494194539 0.10392290289717866
C -3.415778123582212 -0.373255241636215 -0.5431852500846781
H 4.236065201766451 -1.0452232558180319 -0.49747757405232695
H 5.064463538712844 0.5214928950224138 -0.6141741143839793
H 3.666910918289907 0.907472300277211 1.555792079969842
H 0.47034471597781063 -1.0236934557818984 0.9399694289928751
H -1.8011102539118913 1.725759029911697 -0.6983894854200025
H -1.4616949630136014 -1.1933700120313893 -0.2866480739115177
H -2.1909499799968284 -0.45119460758167734 1.196308597645984
H -3.6321173785259675 0.5566789066266641 -1.124550217561417
H -4.2360287948314275 -0.46112799825477513 0.20287384116131066
H -3.5227469667671634 -1.2439162234064336 -1.2395821953297426
