22

C 3.4854730564175123 -0.6820960035293719 0.049383416068349
C 1.9722582964661604 -0.6857133719610089 -0.05273962386356189
C 1.4541789741364637 0.6867347900726466 -0.40852618772467497
C -0.05028298162059279 0.7322280527980688 -0.5258578983796005
C -0.7354577568806796 0.34957112526365997 0.7430671196116831
C -2.2294351241864874 0.38197075194024616 0.6798074928703167
C -2.851275651744864 -0.509779549880057 -0.3186921184579684
H 3.9194639843081256 -1.6784622046923694 -0.00802528852942736
H 3.9437207233785085 0.04589410692069437 -0.6517015916935712
H 1.6263600986073599 -0.9293792837043825 0.995148152975629
H 1.6599794610096188 -1.4635527611696604 -0.7412032410010639
H 1.902866178092511 0.9779133132600495 -1.3706161796474114
H 1.7375597340473843 1.416578251181293 0.37084127292926566
H -0.29760281591196425 1.7394199757897102 -0.8893744086391473
H -0.3213269305081575 -0.009127140105171464 -1.3310092602590051
H -0.41251003344527926 1.051665624115011 1.5397117715842417
H -0.3827623412294655 -0.661896293537815 1.0375266172833855
H -2.5965819312812393 0.07842750623020166 1.696557116269588
H -2.5869079254002787 1.4290877238174822 0.550249419935886
H -3.389653688117162 -1.3821882648784107 0.15111766691410697
H -3.662202235293333 0.03845370561486542 -0.8755005429033692
H -2.185861090844125 -0.9257500535456838 -1.0791170607071847
