19

C 3.619831531232306 0.7453900267146719 -0.32398011407516725
C 2.4297142834586185 -0.14743186347454992 -0.38148733146438724
C 1.2355853102205239 0.3841240673925307 -0.6250993166344899
C 0.06426687412476803 -0.5140889189006284 -0.6791396392203101
C 0.16407646024630662 -1.4937713275827234 0.4854334702117486
C -1.223336216410031 0.1815469979613698 -0.7191268752753309
C -1.9201050764015322 0.5339359694811971 0.35772621876175476
C -3.212201780289608 1.2322367760037216 0.30638789616016615
H 4.540161578512922 0.25242555850761766 -0.6546623839388499
H 3.3997840619825657 1.6482557961430646 -0.942880853105172
H 2.5677107175682155 -1.2069021648526357 -0.2233446616988857
H 0.17115491649857748 -1.1336541174729255 -1.5991307688785572
H 0.8571827727183877 -2.325772828117106 0.2261240868412605
H 0.6048175427092125 -0.9905647065146878 1.3748705060444442
H -0.8623634002414 -1.8527726042270245 0.6862259820431899
H -1.6516291362432851 0.43369404262952294 -1.6812990724104095
H -3.1597804305702124 2.3102456751628124 0.5324435846942606
H -3.653425771928451 1.1479386276369679 -0.71786466603395
H -3.971444237188062 0.7951649935088261 0.9940928225580935
