15

C 3.266533646523556 -0.18048176219104564 0.13806103765683786
C 2.195559928100849 0.6335392256264551 -0.47156940315521034
C 0.947765061026661 0.4925124954955479 -0.13058788449925057
C -0.20751845713954503 0.38955840526095725 0.4546171951513689
C -1.2495017765906782 0.6765229034405278 1.4059056942536634
C -1.4939466157317842 -0.3475566546278022 0.41355692819203826
C -2.2684425250730995 -0.10173649529878163 -0.8610512672090176
H 3.3675863021339083 -1.094771700662782 -0.5154123085754637
H 2.9789264324127758 -0.5896644251345968 1.1394236683722185
H 2.4088627434107868 1.363350024828175 -1.210077995565237
H -1.166544228992707 0.35870451372104833 2.476703616374981
H -1.483168236034395 -1.4143080811431612 0.7623099262816435
H -1.6252078098954297 -0.521981767902592 -1.6900389771204773
H -3.221096027594174 -0.6444223129007209 -0.9067693284100251
H -2.449808436556158 0.9807356314887863 -1.0050709017480965
