19

C -3.5992096755070344 -0.42827361775884953 -0.1291285018146205
C -2.4212313897826507 0.3552904240993146 -0.5759564968169216
C -1.258726143102122 0.3950898020634189 0.059153694994916996
C -0.09768688666722146 1.1702976585778657 -0.38552272915856234
C 1.1253047791964577 0.34592247275606686 -0.6658268369696583
C 1.6206645916180544 -0.42617384179109913 0.522615440237951
C 2.8451404571003938 -1.1875450717644118 0.05187439952866636
H -4.1605265110477365 0.05194767136781818 0.6913156367702408
H -4.23283223621722 -0.7453715295531176 -0.964984493807002
H -2.522819066052701 0.9326084149742087 -1.4835548351621601
H -1.1807415047293213 -0.1996106767181053 0.9781702834793897
H -0.37169641862339936 1.6790211310184753 -1.3337274983955252
H 0.13072051357545814 1.9860765702938143 0.3430793086926794
H 1.8979564495801138 0.986942565195116 -1.0809961830141426
H 0.8839140422734887 -1.0822834963709795 0.9757078493257743
H 1.9858608989050845 0.2619115719048447 1.3348357402410986
H 3.394271314396823 -1.6272107692351103 0.895971190269706
H 2.4716912158834505 -1.9579741581724943 -0.6741867732154061
H 3.4899455691999908 -0.5106651208867387 -0.5435989533988136
