18

C -3.0504803835946084 -0.31992594612614966 0.4208679031107087
C -1.745166772041441 0.29544093100018104 -0.0438361356794102
C -0.6893210636214734 -0.7889554907638672 0.054945534375905325
C 0.6200245006217734 -0.22582392435327583 -0.39513030007432814
C 0.8557804206530246 1.0082434401719695 -0.8160948337114016
C 2.292265533764177 1.1619848084610174 -1.1706035657891636
C 2.857439731067289 -0.18266092976456716 -0.8883682320728895
C 1.8819515398898183 -0.9637302263097327 -0.444561809250897
H -2.961816930968434 -0.4930628491402203 1.5054889411704002
H -3.927079598335057 0.29069081450994805 0.13552737791476643
H -1.5228786536328527 1.1288050923735606 0.6216139808366575
H -1.8916703062571558 0.5802782756713757 -1.1029403727059808
H -0.5787929514570896 -1.13093521821757 1.1045314089905336
H -0.9734296304073575 -1.684928223591031 -0.5348774924894603
H 0.126231583700604 1.8008661593038486 -0.8973571604522914
H 2.785962636818893 1.9580484336727637 -0.582842323856828
H 3.8988842281392535 -0.43567024298584117 -1.035955100632764
H 2.022096115660649 -1.9986649039124207 -0.16404145174148288
