24

C 0.14785582538676634 2.81907967188281 0.48392021103020644
C -0.08670957651873483 1.9559124395096243 -0.719293553031854
C 0.09057388770446803 0.4777796732190574 -0.3797172794992999
C 1.3952271071371216 0.06895150028766578 0.05356109317650215
C 1.8273003950987152 -1.110605888354032 0.4035106981793316
C 3.186537083195786 -1.4402471587244183 0.8358742202124086
C -0.9800530063421241 -0.2722940847809593 -0.5207313124261969
C -2.2586147078048397 0.38177372693500716 -0.9917741331946175
C -1.0116525302793669 -1.685537616109715 -0.25593233905503937
C -2.0624418985918243 -2.464499881648117 -0.39251399478039817
H -0.7935573600282039 3.0305957203488627 1.0083462212994283
H 0.7018425638255139 3.760510465327579 0.20425341172688544
H -0.9615318282308106 2.1501844275224142 -1.3069469821319335
H 0.8143831369649508 2.142198643213005 -1.3928583995988475
H 2.1808286190783868 0.855115884108549 0.11033519923984128
H 3.8467027899887607 -0.5878655272887177 0.5448690049601452
H 3.5575020640648045 -2.3469665402678728 0.31526435044063156
H 3.2713570318794205 -1.587566847464371 1.9354184874619644
H -3.128692128717996 -0.25273508751434554 -0.786836227489012
H -2.43427601607104 1.2914954309035167 -0.355161692450334
H -2.1765546524945236 0.7063550610206866 -2.026002008784434
H -0.1176468254512891 -2.225490299430545 0.09309266941746928
H -3.018375189988166 -2.1219627840269775 -0.7207298424822962
H -1.99000478380567 -3.544180928668597 -0.16318861343370494
