28

C -3.728155956608805 0.6848610218654629 2.059670404155162
C -3.1614757429216405 0.028916720766102175 0.9256718486046287
C -3.6063493656652823 0.3551185471981694 -0.24882897882799554
C -3.979075347853599 0.6840261721663383 -1.4414042679806476
C -2.135080376393981 -0.9596747852186712 1.047058214099945
C -1.1851681375598255 -1.091507045244647 -0.033147078611884255
C -0.9155417797074058 -2.2091930131259465 -0.921713282319765
C -0.4390899962625657 -0.03081040260337664 -0.25039146242600974
C 0.38126236550151443 0.9790625946855641 -0.38323968685266985
C 1.5772441008046112 0.9105486134142045 0.400791213885388
C 2.6307795402686898 0.2589857364446623 -0.05489817406303766
C 3.8308257440244757 0.1879734278458447 0.7274126512026539
C 4.960345805661344 0.4432565378420481 0.10705250187525578
C 6.0237382865867035 0.6939903130590819 -0.6026545392888228
H -3.981181591523882 1.7534118395786256 1.9488896296126874
H -4.544173252526231 0.11593771651583293 2.580909844270609
H -3.498836287656135 1.4497380485915377 -1.957602126592703
H -4.769909512512058 0.16817349872870874 -1.8782608084636396
H -1.813099581908187 -1.2521977242014188 2.038789439677655
H -1.2173424177017147 -3.153297065028213 -0.3820335857155266
H 0.15785872186191044 -2.2969006849153337 -1.213170558873256
H -1.579512853897104 -2.1203815058169746 -1.8098546583092638
H 0.03107007371890376 1.7001200395900462 -1.0576295518068628
H 1.634717369827317 1.386055800490741 1.3668669978632577
H 2.5903962422490023 -0.22322113323967407 -1.0208564693145967
H 3.9493209075297897 -0.04333154241220186 1.7493679597678022
H 6.479283970048152 -0.1459517897215763 -1.0670345438974425
H 6.307149072617287 1.726290062745242 -0.6297609316705894
