18

C -2.7467113345392025 -0.02331156774968398 0.5866945103776814
C -1.2896888165731177 -0.2771306185194453 0.3600996286468744
C -1.1287189685196342 -0.8478369380902222 -1.0469447041228674
C -0.530488879685316 1.030390331629421 0.4158856471645982
C 0.8817972289236481 0.7233335605394539 0.18884247571862253
C 2.0660775736992933 0.46310563773675884 0.0197585743912908
C 3.4798153192348895 0.1310185529918438 -0.16799981526031094
H -3.234922501413588 0.1508132544378046 -0.3944642882487304
H -3.286547023192997 -0.8547973186069282 1.0636870858400511
H -0.824783743990129 -0.9711940126196955 1.0635960378660538
H -0.17949807643052643 -1.3858613423998176 -1.139889952527339
H -1.2043557170448556 0.0314050423928666 -1.730436145378854
H -1.9797974974929073 -1.557956628797258 -1.180432523056591
H -0.6570022754000058 1.4435743314718659 1.4326508658134882
H -0.922739722702824 1.7258454357294146 -0.37827059190708356
H 3.6307096311449367 -0.057083015832174726 -1.243537120312899
H 3.7842550665838415 -0.7208996413267303 0.4769650445178792
H 4.142599737401067 0.9965849370172019 0.12388870415731902
