16

C -3.0518415909887366 0.4280828230681882 0.01893540783163834
C -1.6687432891001222 -0.08676885355225614 -0.29462668769213657
C -0.6701558368211874 0.9696312062334944 0.03087107526851975
C 0.7243194120673728 0.6044923410589713 -0.225793318509884
C 1.3945732381021319 -0.3275004086839496 0.427539604004418
C 2.804107943574335 -0.6421420499858311 0.11223198870971862
H -3.570871374110424 0.8576309733214978 -0.8341825001710973
H -3.6389717104570427 -0.2275522429774211 0.6621555112446819
H -1.5738192187409445 -0.31359852224050533 -1.392617417503953
H -1.5149775628764588 -1.0442058814866582 0.23610611328309977
H -0.8514149606374865 1.5150950042006752 0.9530875125707553
H 1.2454980155487663 1.1532161312435818 -1.0252223555148896
H 0.879944334836213 -0.8609012083190586 1.2082251276300648
H 3.0288375410210486 -0.3151115807850264 -0.9307882154856695
H 3.435768215881643 -0.010072816300054332 0.7934214588828729
H 3.0277468427008465 -1.700294914795824 0.2606566954517972
