12

C -1.1910826610336662 0.9880049992606323 0.5759008279264363
C -0.3284899043698913 -0.08401377842108952 0.0498760661880265
C -1.0880253750912927 -0.794832116169599 -1.076145241259075
C 0.9393220705330662 0.48315747009731635 -0.43712996408016896
C 2.1058980455680585 0.2110112348587227 0.11352161391056322
H -1.5780321143721898 1.714344313061503 -0.10291960302571185
H -1.6048593620484322 0.8871109251222039 1.5540142870812332
H -0.11550207014538331 -0.8125262338151562 0.8630620911662535
H -1.904387691741012 -1.3499732587126863 -0.573862254487156
H -0.41820041629733046 -1.427201984375246 -1.6650939858155875
H 2.164376737984064 -0.45249146398312895 0.9585507260046826
H 3.0189827410140073 0.6374098930765187 -0.25977456360950346
