22

C 4.086890569779998 0.9728713904432273 -0.19722519517226875
C 3.3898895468876153 -0.09360993896028766 0.5039415292045878
C 2.086117764697542 0.03825890264806263 0.5905541957886054
C 0.789510830513031 0.21001860573121806 0.5714315253746567
C 0.10168280868870413 -0.33976882042034606 -0.582142669366093
C -0.16908572295203908 -1.8073144261923637 -0.32130521884362945
C -1.194350395069933 0.357335823849399 -0.9192848447889845
C -2.1945991036754755 0.29940151909249757 0.19937664204808841
C -3.439834039540511 1.0330079350674475 -0.27186431975488484
H 3.8946753171094564 1.9677361897451777 0.258419321919811
H 3.9972048913088756 0.9621593601191618 -1.2874211067947638
H 3.7586319740866885 -0.9667901488758005 0.9592433984144776
H 0.41256805153815373 0.7332761265485499 1.4074480853287372
H -1.1408329335344973 -2.142584404052347 -0.6914706142911337
H -0.13335855857487047 -2.0449771373041794 0.7774112162746829
H 0.6925329159150148 -2.380940876817246 -0.7587521070491803
H -1.6645774936225588 -0.11668426520196078 -1.8053206010721108
H -0.9870398143530138 1.4081546269499385 -1.203106346356908
H -2.424706698979624 -0.7602439826270734 0.40923442879192223
H -1.8322243036257393 0.7749937085973572 1.1335541031585377
H -3.9350602746737717 1.587913273133596 0.5245710515635741
H -4.094035331923095 0.30778653852594867 -0.7944190252544114
