31

C -1.6959025648639665 4.325009068660759 -0.7012399604897587
C -2.1304124341583086 3.625916313828844 0.4990363920365159
C -2.3288955422297457 2.3297149148286405 0.37404030142558653
C -2.3895797180247618 1.0253165626439094 0.1708645080310316
C -1.1554247518556586 0.2915715305818982 0.3871143258590497
C -0.05407879356241927 0.8078859884974336 -0.3992348950568804
C 1.1420415086129858 0.6186530136057933 0.10455827484123033
C 2.3034931833467183 0.31471191236313806 0.6254526231781493
C 2.860128812418964 -0.977984844997742 0.23131611800622798
C 4.360686075395198 -0.8792316139412724 0.3636899089714658
C 5.070967430602978 -0.1339963119827882 -0.46364870328706387
C -1.3984833113190556 -1.1605306063194996 0.20903339119489509
C -2.339960628028177 -1.7893376163892372 0.9092191282564575
C -2.348777961262134 -3.1716763809975754 0.5328049970707042
C -1.4351543447865507 -3.4062159571901947 -0.38169673094563683
C -0.7525599823824808 -2.1392349559637065 -0.6636875396414172
H -0.6063995159587446 4.350446807300976 -0.8664146595085876
H -2.18158360017711 5.3166628234697395 -0.7462318434924653
H -2.317808060429782 3.9827112756022545 1.4762155476053758
H -3.3485928012000246 0.7091838552768772 -0.12573100367684056
H -0.04718427673550694 1.3177305699253685 -1.3241688990876752
H 2.6919366414831787 1.0491211942474994 1.27077257143307
H 2.6849598678505955 -1.1024545247241526 -0.8706391807457999
H 2.475517066221581 -1.8430748898927587 0.7682778670009278
H 4.657443465637081 0.44408672934864457 -1.2713755526702373
H 6.137412034183334 -0.10444272391552746 -0.317803968791158
H -3.0099826318978438 -1.3527368050841442 1.6535136602127176
H -3.031084667854255 -3.9210756345045383 0.9585379850160866
H -1.2759997083916663 -4.400844154191872 -0.8063746725705543
H -0.878070511499288 -1.8956500266311866 -1.7580901259468413
H 0.341349720864433 -2.2302355134565564 -0.47514574412866317
