17

C -2.308504954885771 1.2345751670786842 -0.34195686680013127
C -0.8917870879559404 0.8219811613392103 -0.3738717938090527
C -0.4890979502548502 -0.3432125626435934 0.10087072381956372
C -1.4969954977882511 -1.2665306219385668 0.6853737723519587
C 0.9126964800183192 -0.755830383910026 0.07127972754403969
C 1.8791428213185357 0.31717155603887875 0.33421231637688664
C 3.1611406078479964 0.032963711897481256 0.3528841800995886
H -2.6093564281184793 1.759588047897306 0.5621790189178046
H -2.6673738856569043 1.683713919101474 -1.2771196652622891
H -0.14502209588931486 1.4977905666805378 -0.8030959338987098
H -1.0560373349030834 -2.2356430630608446 0.9899327080581293
H -2.3390045719925356 -1.452527730642967 -0.02184152897585636
H -1.9594386923670788 -0.8044357653693321 1.589751723324586
H 1.087220927664889 -1.6752905734267027 0.6475313030016849
H 1.5553147658397948 1.348773289957949 0.5150432964438703
H 3.8790742965945335 0.8107647098299854 0.5444802617643453
H 3.488028600527873 -0.9738514288295194 0.17702025423686218
