15

C -2.877045413483122 0.04983256258256191 0.9913226182065602
C -1.504845177461329 -0.2940299646366061 0.566771020368804
C -1.0920649021379933 0.18518428880331678 -0.599940429863275
C 0.29211838165923953 -0.16147021878761064 -1.02856681339151
C 1.2225919806652819 0.39981041795697175 0.027771861368194997
C 2.659888783714496 0.12997917651512184 -0.26476913311229405
H -3.0494497510411143 1.1384919288138957 1.0682272449982035
H -3.6528727468843334 -0.4563454950892387 0.36836685225489124
H -0.9068567499499733 -0.9144946956066695 1.2209369821103597
H 0.4681899283205579 0.2758517579679107 -2.024027667538381
H 0.4588262585927292 -1.263554997725433 -1.0336923137930512
H 1.0060655256491662 1.487581145649605 0.08698716891033656
H 0.9551651281144959 -0.11010830912886273 0.976483564532146
H 3.18970711066083 -0.08673822145871923 0.6791897664517591
H 2.830581643581094 -0.6497699467486404 -1.0350607215027536
