31

C -4.992770476701878 0.9653281285142826 -0.44205546531884715
C -3.5579565536039364 1.374332833970055 -0.35746025531105097
C -2.580948992874455 0.5591097880507399 -0.7066487973320162
C -1.176779534750586 0.9735553811462737 -0.618590525932547
C -0.37471869657152335 0.07368342395489533 0.3199066430679937
C 1.0426591260205422 0.5238632606104942 0.38388557513635047
C 1.8711974568989285 0.10873992607951816 -0.5606689610290067
C 3.3199580666788675 0.5176689287391187 -0.5694352316848217
C 4.12859731457332 -0.7244706905011942 -0.48330948895089976
C 4.978024276995216 -0.9646149817878938 0.5091227090988139
C -0.4623915304898707 -1.329937025118657 -0.10814344073449804
C -1.0674791330981215 -2.0034953374403504 0.8428395905273702
C -1.4219435922307755 -1.1331576391692637 1.9479445221020844
C -1.0187307785230748 0.08165626581380972 1.6460908848916236
H -5.18756691927297 0.35444846801239654 -1.3450210634189899
H -5.663535972723527 1.8315822559343191 -0.4729640889171917
H -3.360563737715019 2.376959664638486 0.006158749906742199
H -2.833998643394601 -0.43487252111506247 -1.0644385150383522
H -0.6651208396917913 0.9126785919621009 -1.6177300594307211
H -1.1151987827029246 2.0086507370453166 -0.25536090249327653
H 1.3334088789556378 1.1705228196712927 1.1994927412183893
H 1.5510617989572006 -0.535441540905724 -1.3604965825818027
H 3.5543688184499236 0.9850163528470385 -1.5669022721339823
H 3.5257455989878665 1.2055010854973247 0.27049134763596255
H 3.9875896465857434 -1.447001158338646 -1.293960797555457
H 5.534070580118371 -1.8939541616302495 0.5046304267352926
H 5.086021383697979 -0.22697493209847788 1.2860892368910293
H -0.08112737013058997 -1.724806196929173 -1.062291003079092
H -1.2504611006973394 -3.0875649726810472 0.7490051652032985
H -1.9365120502177755 -1.4565786100211207 2.8646994167540685
H -1.1648982415273617 0.9395718552498576 2.3179984715322424
