15

C -2.371540274456254 -1.426351856940032 -0.9836888819282473
C -2.3598725601438644 0.044203441785167406 -0.6889528003012942
C -1.516037365120449 0.536783237815067 0.1843953513901927
C -0.5438713038676317 -0.3559871583659183 0.9085537163143625
C 0.8120354511548834 0.16419045808477162 0.723740785449503
C 1.9338712148807533 0.6055069759458716 0.5890252133292869
C 3.2867972428549943 1.1588436892884901 0.4167422314908069
H -2.972409576093052 -1.9895028333402782 -0.22923108860945582
H -2.745758290945498 -1.6008876947164785 -2.024498819350855
H -3.0399399816468176 0.7422156032991125 -1.1813982032621593
H -0.5379741448438833 -1.3821406327475618 0.45490649490564
H -0.8550698740369146 -0.3773579655920631 1.9521774314133205
H 3.3872104539034504 1.9683762468374957 1.1913341502643215
H 3.4643203816106367 1.5460467876193031 -0.5936990166075491
H 4.058238626872184 0.3660617010164747 0.6005375763739749
