16

C 3.6823208894686985 -0.1241227181098482 0.2252965915836698
C 2.5320672570287504 0.26626231970352543 -0.6212652499099215
C 1.3218647687632459 0.16352455064848556 -0.15487454355039218
C 0.09000703863107504 0.0869407917804993 0.25865066082049826
C -1.1986076185890537 0.056802971887840115 0.31441680691256
C -2.0042044280538605 1.3074045740211562 0.30757108496046875
C -1.9445940827874744 -1.2257838030051775 0.3882594504585618
H 4.262997643252416 -0.8804015745325915 -0.3469240548410132
H 3.4117126222132503 -0.42867484582571946 1.234488642577661
H 2.7649194479712933 0.6292456967200666 -1.6180707697557286
H -1.9170073101469436 1.7298302252154205 -0.727702427028966
H -3.044489708395935 1.134771059348321 0.5650326284123646
H -1.4774400359252022 2.027357517286005 0.9702103539397756
H -2.683053367855215 -1.2306323867526696 1.226712556764725
H -2.5181923364758787 -1.4213938373641513 -0.5338451006564211
H -1.2783007790991825 -2.0911305410211467 0.5482000637506269
