29

C -3.5235433332223174 -3.2018814644432796 0.010828307071818113
C -2.8847075080008096 -1.8561743998859102 0.1170611146518903
C -1.5931828763291433 -1.7076451777238473 0.09186923782830228
C -0.8951238644689611 -0.4306674189048881 0.18989693466090266
C -1.5096993373839185 0.73030648971578 0.316791615633322
C -0.8104605011503337 2.0277179134660654 0.4166905580831988
C -1.3429627253574543 2.9197277202484124 -0.6458105639154861
C -1.4729679056436469 4.202000559417863 -0.3941835565093293
C 0.6425775352313601 1.9621497256965459 0.3666195223904113
C 1.2836537372767705 0.8306914820981877 0.2416782436182628
C 2.713235326388888 0.4597310974891979 0.16383029177941338
C 2.82928967369044 -0.8513127568526118 0.038013230459209776
C 4.134675542319223 -1.5694730779237624 -0.06846564203974297
C 1.4846372076037995 -1.3931005427148968 0.02813884299926798
C 0.5772572402963531 -0.42607147503413784 0.14579686621554433
H -2.7985663133222323 -3.9254671242192085 0.4271323893793917
H -4.441944921538585 -3.2608264609860496 0.6377493136400798
H -3.5632361632608043 -1.0234022788621209 0.21526714649219425
H -0.9926948394941423 -2.6183176072415715 -0.011252323178763143
H -2.5841410868403263 0.7300067047708215 0.3492528615148602
H -1.5993955561281696 2.4508418061119643 -1.5887899845026663
H -1.199026873228986 4.598136349054409 0.5628829998678765
H -1.856168957026707 4.866474749589215 -1.1479482114771777
H 1.2074920724615243 2.863902544012712 0.43364989175137014
H 3.493211445256739 1.2143093192734609 0.2106359084622093
H 4.842465852249786 -0.9325780701196553 -0.6684562890630373
H 4.014793275592426 -2.5649814739636394 -0.5038881930014363
H 4.584433386378214 -1.6383688539242032 0.9467188554272014
H 1.2601004676513443 -2.455728278145164 -0.06420393332201407
