16

C 2.1887391093942825 1.1205722055008074 -0.5852372061449735
C 2.3252585241116597 -0.3379188017662256 -0.406489554663427
C 1.2924993060162946 -1.0600553313739203 -0.06917847004342229
C -0.013135419111284172 -0.4280811004750522 0.13521843593578103
C -1.0789729788278308 -0.9677138054888265 -0.8019059912774307
C -2.394001095567826 -0.5538893976974183 -0.18682419397398758
C -2.8079951205303 0.7011720657540765 -0.32026737688455725
H 2.9518305105135703 1.4752813789802013 -1.2843292274000608
H 2.1655623710764527 1.6943578602410398 0.3464896330452976
H 3.2853244159309822 -0.7920091258021716 -0.5583083033696579
H 1.3889286820585112 -2.125843752622494 0.06221330920061494
H 0.0009505691375640869 0.6734983246587545 0.00239113318883636
H -0.3753117851830637 -0.632277259433712 1.1700090584392355
H -3.007301414172806 -1.2372845371146297 0.354882770880353
H -2.197790344719355 1.4215777976944017 -0.8710128015158299
H -3.7245853301269096 1.048613478945137 0.09130039118380803
