16

C 2.2834777645304842 -1.1712538689162275 0.6729977639525472
C 1.7273059745283774 0.11710385511287077 0.20240340634737555
C 0.4702889021148971 0.4244781778590406 0.42869025099959845
C -0.15208711384401472 1.6935489780553177 -0.01241492822743814
C -0.36693301716138915 -0.5091915302894751 1.1431907184053032
C -1.5630737135655732 -0.7004159307688241 0.6490174892256607
C -2.7490065309423786 -0.8377343373318039 0.08717016689021896
H 2.0733009129196827 -1.952593404033145 -0.08264998944411386
H 3.3497313019850203 -1.0309199244455198 0.8926683198860701
H 2.350278622057434 0.8261365355445175 -0.33635037045242394
H 0.558072061374325 2.324120388609424 -0.5898901891520246
H -0.5261291050992941 2.2069046712689806 0.9057220348897783
H -1.0159037942884082 1.4384968623423728 -0.6723612276283005
H -0.1557710885145136 -1.066450552869915 2.0139952128169685
H -3.4806597191246635 -0.16182828435648092 0.44482558415972406
H -2.8028914569699293 -1.6004016357812656 -0.6397827550490353
