13

C -1.6606658090514106 -1.2931214022401836 -0.2725494863794719
C -0.6175480908056303 -0.2660182383007762 -0.17199361211983105
C -0.9409558525415326 1.026165872089534 0.019104229120487617
C 0.7884251908082468 -0.6868720528312405 -0.28558665408778255
C 1.7786851294323887 0.300344983197551 0.20924846402418154
H -2.401558191997314 -1.1440535597751211 -1.0422678330265591
H -1.9908007705808528 -1.725477499147171 0.6653137123845527
H -1.9518423949019261 1.356768508137446 0.10464828082689662
H -0.162049997980647 1.7772993562899484 0.09205016614975828
H 0.9776329811562855 -0.979774056758292 -1.3240992625075165
H 1.4235062164617711 0.9232504345146355 1.0505286786713337
H 2.0671047683900063 0.9630546495660773 -0.6437460659200139
H 2.6900668216106385 -0.2515669947423966 0.5760944555945381
