21

C 3.6821247239303077 0.6441973821319126 -0.1929102350386638
C 2.1758131664003595 0.6418782394491137 -0.28220953030427137
C 1.6307432857364825 -0.5068776223242064 0.5358290538836752
C 0.1682861247573256 -0.5813548606658524 0.5026412390210555
C -0.6081034243219804 0.25157827466830684 -0.16129259730768666
C -2.055837864558262 0.1496497339030912 -0.1732481667099059
C -2.7959781732529763 1.0032313152219794 -0.8503032367305724
C -2.733733878568019 -0.9283556414090373 0.584409703831082
H 4.137745787261089 0.024134512279690136 -1.0065152350443636
H 4.049542705595275 0.2069356060992659 0.7678430025032899
H 1.728231589745578 1.6035057666932195 -0.005859144665404722
H 1.9155446212070901 0.43931316932053704 -1.34253602982818
H 1.9279353324913866 -0.3282287379034005 1.6034075916585275
H 2.1312706931183527 -1.4388421655953563 0.23702915920390502
H -0.30987831705824076 -1.3734035849577995 1.0604916088658114
H -0.13777180274349574 1.0424526113647867 -0.7187642545692607
H -3.863554164609523 0.9048247833397446 -0.8418968108206135
H -2.3671989112395524 1.8218819978988559 -1.4308516809045944
H -2.3953228825900084 -0.8526176057015651 1.6377177411318087
H -3.81889741236006 -0.8177311389446764 0.5818559478350964
H -2.4609611989407365 -1.9061720348687305 0.13661401941800183
