35

C 2.9358910401461262 0.6532810263467668 1.7624396501713055
C 2.7398322514872167 0.8826007190341262 0.34808236742979176
C 2.5154501069016373 -0.19615111253817166 -0.3486110369906452
C 2.153865106921294 -1.2611210457414026 -1.0482892652419185
C 0.732236606904624 -1.5221351806278487 -1.1068758753114605
C 0.46944964133064593 -2.7377650061057066 -1.9564067641212826
C 0.06108792528621326 -1.539709760024607 0.1852655709879479
C 0.525243901476984 -2.303631800570976 1.138952217457823
C -1.1064553790149998 -0.7267587516298392 0.4250979926823325
C -1.7041211399543752 0.09927383491977342 -0.42768140896738316
C -2.855923947292774 0.7350721770446038 0.20443932198604073
C -3.7387543177345455 1.7060750594520866 -0.46236821343491163
C -3.5341622259268473 2.06851083345817 -1.7059745875017052
C -2.965607744393856 0.3012843135178069 1.441171938851678
C -1.8700780441700213 -0.6571396587806126 1.681723392005518
C 2.7536858210425734 2.10177640535491 -0.38393715038919557
C 2.9773294759089235 3.2191772512221055 0.28234919722057533
H 3.59474095252786 -0.23033206656113187 1.926884166402862
H 2.0455667844572214 0.5274068480828119 2.3725652627631777
H 2.981106545020769 -1.7575150383064775 -1.4590918269377562
H 0.07026968016158408 -2.382291888756026 -2.9289210319467123
H 1.4112389748944298 -3.2971060160493084 -2.0950395765751795
H -0.3221145061544654 -3.3427839920695797 -1.485229776216303
H 0.028481496390943745 -2.316505202146474 2.095036340682326
H 1.395574202554217 -2.9374806858875657 1.0262994480395344
H -1.3318967055654787 0.2326375853867006 -1.438383593043163
H -4.561443471943007 2.122148147195047 0.0795006331157273
H -2.7123353298139223 1.6593028324577264 -2.2625987320180343
H -4.183285912448209 2.77301119106616 -2.173775091561677
H -3.699275726965354 0.5603935813480531 2.1910343248466173
H -1.2495386955121712 -0.29822884419986434 2.5470519866741133
H -2.281951376066203 -1.6658499130739797 1.9498305022533946
H 2.5902774786387797 2.149109132088085 -1.452336784193605
H 3.1468966811607717 3.2394601681873048 1.3435799030807214
H 2.9887198497464573 4.141984856908471 -0.2657835022010821
