30

C -7.156718543142976 0.0883215501136273 1.1211368711316172
C -6.945178383909406 -0.8722070060202942 0.04583603372107444
C -5.709018913672703 -1.297198363116311 -0.12385709347477641
C -4.440232426428468 -1.5749295410631372 -0.26464020185833537
C -3.6922061065481295 -0.7063951099887962 -1.122759408124836
C -2.4980645993509487 -0.2917385647131664 -0.7837963784223726
C -1.2448384216889155 -0.023239767959005373 -0.5512061592690167
C 0.047809779458186194 0.15744919633820856 -0.572154990239527
C 0.5405859756666798 1.4138323914000235 -1.1823930129095286
C 0.8874985918826915 -0.8562296664582574 -0.012139840787436478
C 1.9239662629805567 -0.4326828418153259 0.6802917642434059
C 2.9829606315805917 0.094195843224308 1.2638672942440636
C 4.130248099159033 0.3312897824741157 0.39767915089884204
C 5.271416645830546 0.9481522167942863 1.0707785161455114
C 6.460281313417089 0.67735276587175 0.5878121573481598
C 7.601923692398862 0.3417208947111976 0.02644502629990926
H -7.086552711109673 1.1453938373882744 0.7784829173512758
H -6.504843590244575 -0.14356723815852104 1.9732338742566289
H -7.62679158913242 -1.295625499528583 -0.6377452619866979
H -4.119407341134505 -2.4181720399513704 0.28215956284178173
H -4.104788776053164 -0.3809155339765056 -2.064078762085521
H 0.12570331406461427 1.5355274547555413 -2.2041628086656586
H 1.655912771054782 1.4105728998479958 -1.2770034961076258
H 0.1873568994796009 2.317301476866222 -0.6067662296351487
H 0.8183076816091875 -1.9062345408194428 -0.0607521064924525
H 2.8433746326786147 0.2721580278818053 2.292057137581324
H 4.400243832940619 -0.5868270820322152 -0.11687025869135526
H 5.28600570435846 1.593279881028423 1.9055121275458518
H 8.047612751098109 -0.5312415320634578 0.42572211542618554
H 7.917432822751459 0.9906561089688293 -0.7482186411147884
