31

C 2.440783712962851 -1.3782248251048488 0.25130055002661156
C 3.1838099515773712 -0.11678960133762725 -0.023575050105149167
C 2.5601651857792485 1.04316924010129 -0.3571332355667616
C 1.6834077698955707 1.8406867436022674 -0.6141773621567556
C 0.23137814761949108 1.760641435379143 -0.6836356614556842
C -0.49608030109709095 0.6947385887194811 -0.4575438386964303
C -1.9758559666576712 0.6993627121828744 -0.5502528032623603
C -2.6093766664092075 0.3254537639876604 0.744648593005731
C -1.8345746298473855 0.04976797637843199 1.7649688615145411
C -4.0809297149908135 0.2603789828261355 0.8992776107953716
C -4.672054565309372 -0.7515896383375837 -0.050740919172079534
C 4.553896996374539 -0.21369081059813183 0.08579317467102957
C 5.198413297543232 -1.4949604965558412 0.4515148239300134
H 1.8147975209560467 -1.705000728739843 -0.5698004289651886
H 2.023355503901226 -1.4349558473037383 1.2492939873405053
H 2.0313247842687976 2.9041706108006373 -0.8631050955469083
H -0.36872845958161315 2.6580886218052795 -0.9490042845379085
H -0.05020795924884732 -0.23772538811445074 -0.19292486799206293
H -2.352926111251192 1.6915944930225357 -0.863886602086049
H -2.2704279432805023 -0.013505975932895879 -1.349715455425604
H -0.741644361911778 0.08473697700170439 1.6984606945139393
H -2.2417541962541394 -0.22614058800540326 2.7236571682743698
H -4.380971521229553 0.07784094589545087 1.9485783422389384
H -4.471675436009198 1.2617565772788497 0.5625217391489408
H -4.236919926920099 -1.7634784891546653 0.10609992573318101
H -5.766193703220148 -0.8121558869952138 0.11614660063101277
H -4.417680186737143 -0.43566353099007954 -1.0814653188663101
H 5.110677504129664 0.6898761776495607 -0.10958560974634887
H 5.326314651925729 -1.5939915099448716 1.553052627261093
H 6.20803857942138 -1.511479538451375 -0.03439053409046346
H 4.601638043599136 -2.352910991068052 0.07119111338465903
