35

C 5.303246793409773 1.5389043230113781 1.4921534692474852
C 3.920382725668726 1.0445251804576927 1.2770682907908555
C 3.588163930758175 -0.18567131512317023 1.5719696379309573
C 2.925881033758367 1.9966156809090128 0.7145996492932344
C 1.6028946636962822 1.3999597124725374 0.547607539800285
C 1.2383253100515563 0.6934033017319586 -0.5393251974908457
C -0.09034166296548883 0.14494559109328087 -0.6095871038154237
C -1.0007762973391188 0.3044609111224403 0.37002371006752005
C -2.2158924110791505 -0.36197734741394966 -0.010708805364484276
C -3.36891499873496 -0.4478732959884787 0.6769182690329748
C -3.5317902437956743 0.1604587425006338 1.964939577971727
C -4.6679556550603705 0.05837695984433755 2.6090215858680588
C -1.9571920736953534 -0.9383636596067243 -1.30859959305274
C -2.9426779313045146 -1.7274491658443234 -2.094664962814247
C -0.6808528843934788 -0.6349677048108461 -1.6701360293221188
C -0.15062019756309605 -1.0917963385952667 -2.939293627078984
C 1.0042703491998577 -0.9187223898657408 -3.461260784868063
H 6.033780341638704 0.7244274455056711 1.5711124746761256
H 5.580669151832593 2.3515098021452494 0.8146100802494297
H 4.320617251971001 -0.8723592655162237 1.9816723160341503
H 2.5715452696188295 -0.5168725186638111 1.403795269868031
H 3.2547003597084423 2.3614848157959334 -0.29998482277152316
H 2.8236600514819896 2.906922475933803 1.33483042691811
H 1.9837010398880908 0.6003841952830413 -1.2692959103047
H -0.8414843823120488 0.8463721106676907 1.2926121963406332
H -4.200376131789952 -0.9951276735825064 0.24129465053985744
H -2.7211057296004686 0.7066096749491688 2.413825817036211
H -4.841876225089609 0.5022263281143288 3.5895171968345427
H -5.52122510161124 -0.48275742361245594 2.2012461112173596
H -3.9721225613508646 -1.388427859404602 -1.8284117332927694
H -2.8495021539914807 -1.5238654867544636 -3.192547358084292
H -2.77894744192029 -2.799143507705389 -1.956136031091104
H -0.8518556773202055 -1.6906313154511816 -3.570096827476473
H 1.8308208238422592 -0.39806865056078194 -3.073128269591449
H 1.2028506643902346 -1.3675123330337997 -4.469738552941502
