46

C 8.346842352073 -0.24835917501617638 0.7086365169611043
C 7.00073853467449 -0.9276601196583018 0.5826196454568083
C 6.186705215432745 -0.49384015385859203 1.748630887444311
C 5.034318731440973 0.1585658974259487 1.5173391572138866
C 4.591110253130256 0.43451554121445785 0.19700596845256382
C 3.9431070689358005 -0.4716174682501796 -0.46736233016301054
C 3.153499379619563 -1.3778663542299543 -0.9460540491422463
C 1.7454985691468279 -1.3295086412778594 -0.6943925794686064
C 1.0067159246941995 -0.23993269810331375 -0.8466207244752405
C 1.4360748288084562 1.1061836058573236 -1.286883009462034
C 0.34400279861674177 1.9273498815586525 -1.3009678447373028
C -0.7883015022967844 1.2210090879607274 -0.8994736808802883
C -0.45082413013398515 -0.16522020601275678 -0.5926264086997104
C -1.3679441207918508 -1.0348298347661662 -0.18799044166463103
C -2.7601695560997834 -0.6024814764265864 -0.04178546212842622
C -3.649006041648884 -1.5415118667727634 0.37610084700276625
C -5.000673495879505 -1.2153175338899602 0.5430660431708489
C -5.941681801384129 -2.234205451297156 0.9920958161084831
C -7.208391638690725 -2.0093233853175394 1.1701627742963912
C -5.347631943614983 0.08367598708463063 0.2613439911482508
C -4.415220852649812 1.0383267131342528 -0.16890660210896258
C -4.853412385747555 2.307784547467023 -0.425564225604951
C -3.929246500766261 3.2391777246376754 -0.8480270965334138
C -2.604989356173828 2.901596786689282 -1.0067992720257348
C -2.1215460846201326 1.6073958371211443 -0.7520401050665023
C -3.1015194372973003 0.6956605761473256 -0.3243367737053412
H 9.169926545065715 -0.941482301029957 0.5160309317144731
H 8.332773818296781 0.6421809735612557 0.04751770190121382
H 7.0983870104413755 -2.0311945171420485 0.5390011144791031
H 6.514119949989741 -0.6243978037110866 -0.3661859963828686
H 6.554542916981731 -0.7206678872833298 2.736100797797749
H 4.499219149378712 0.44067383202696275 2.434108127549973
H 4.780913752418531 1.3581938387297883 -0.23696281096929392
H 3.54377668263005 -2.1475557807536414 -1.5149802220199107
H 1.2273676707166754 -2.2354279196479063 -0.35503754169881707
H 2.4408535623589285 1.3562118808134578 -1.5425255166475547
H 0.46506319454460615 2.9587241555768697 -1.5992181174706068
H -1.0619284203902184 -2.044895916557628 0.024256415647563975
H -3.34596525771282 -2.5381221891074444 0.5853135982867842
H -5.5485813355625115 -3.231950004355329 1.1846793955177168
H -7.629670578520995 -1.0442095853437647 0.9915938877042189
H -7.860591908647419 -2.7991077675357117 1.5037096003274895
H -6.387266193225172 0.36491065604067535 0.3816637233516436
H -5.900551892757895 2.543952024631046 -0.2917984004880525
H -4.274630121728961 4.2444478751557035 -1.0515679633237356
H -1.8658133530561634 3.6201486145134716 -1.3376409360203176
