25

C -3.6398419018127353 -0.9622712672442106 0.9828882792326823
C -3.0390287472686084 0.10765607200032051 0.2329402435348358
C -3.295209336913635 1.5446797333709332 0.2734805946884441
C -2.115120772069242 -0.2596357249051003 -0.619799061126509
C -1.1189444072113972 -0.6032724655159082 -1.3863648344283284
C 0.1703923871610531 -0.60094255364414 -0.7658767572837563
C 0.5936313000647534 -1.679621203938062 -0.01069175944717731
C 1.835439835806794 -1.708075164379164 0.6026265934111434
C 2.7035375657953384 -0.6248091698305394 0.46775481923913803
C 2.30060276610962 0.4596918874625782 -0.28061582603620566
C 1.0611795590656918 0.45382656249283543 -0.8752481136789493
C 3.404806504397313 1.4468028367071804 -0.25250109591353087
C 4.46461077909073 0.8380025475050628 0.569557230220763
C 4.026341090788464 -0.3338568612449215 0.9569442573278103
H -3.922518810248784 -1.865868776963826 0.4037903998400293
H -3.1534918536497942 -1.213004675577538 1.9465230397496573
H -2.4641555304598763 2.159847584114461 -0.05222756424760066
H -4.152418823977107 1.7543875283254917 -0.42251200649651666
H -3.6182710997611625 1.9144166611108429 1.2728297450813428
H -1.4114272521529039 -0.8364487449671251 -2.366267459990026
H -0.07008087534385156 -2.5255085527329895 0.10145436713956739
H 2.186896594194403 -2.5373455877624447 1.195777994895184
H 0.7602903048746582 1.3009474719467027 -1.4531435233557362
H 3.0833270333233496 2.4343862070742897 0.12049427742432606
H 5.40945369019692 1.336015656595252 0.7707121916283198
