17

C 2.466098842901108 0.21738719744796958 0.3415767696968716
C 1.2687470999001218 -0.6531785666990657 0.5088700290703972
C -0.0344407082825708 0.08660738813794634 0.38814878878173653
C -1.2103607151806668 -0.8037556814044702 0.5587911076165392
C -2.20459743488718 -0.357549586032666 -0.17659424372188123
C -1.7931874371107785 0.887431810870732 -0.9212155571807824
C -0.274265884783223 0.6595640608688985 -0.9720779965253552
H 3.285281567283366 -0.23603819231102033 -0.23819593556850213
H 2.2435716035071653 1.2576140863449619 0.06754991722979821
H 1.259021849863584 -1.547297363613917 -0.1527362734963825
H 1.2996928932919543 -1.0583957496508654 1.560406426955934
H -0.10800449181412905 0.8656370426356822 1.1750997158300598
H -1.2455798441249504 -1.6795502113357077 1.1868999990854077
H -3.1794183781717495 -0.8282901595843336 -0.23120473866636065
H -1.9247054035157343 1.725912127720634 -0.18539349573770877
H -0.10917733269183348 -0.12828546146750747 -1.728907984239277
H 0.2613237738154736 1.5921872580727376 -1.1810165291305241
