16

C 3.3578527994401126 0.2613213416309336 -0.1906381170651304
C 2.4261438029882236 -0.850340056326369 -0.3396951871618847
C 1.3543841479919214 -0.8192886081801054 0.43195505245878996
C 0.2866740749977424 -0.6331009763782492 1.1542493547878552
C -0.7763935741098171 0.11691025406509964 0.5565470345652264
C -1.7385890516958402 -0.5163871450164518 -0.1271956527682654
C -2.860357675287684 0.20680688119874893 -0.7653292309843666
H 4.137514097282301 -0.02252309901205857 0.5457602938005276
H 2.8930361670541096 1.2286057913054975 0.010559254138451409
H 2.458425178026776 -1.6913550542249856 -0.9695149987466073
H 0.3447922463750708 -1.0741804984755858 2.1244313260999803
H -0.8021765269243545 1.1832358428257121 0.6560920702789931
H -1.7157447237692256 -1.586707026028144 -0.22905189145751018
H -3.828041121041481 -0.3084395715955132 -0.5944182002222738
H -2.624826413603131 0.2706998697058918 -1.8577763202620141
H -2.9126934277249954 1.2596460476510623 -0.40597478746180954
