18

C -0.6471767352356618 2.128531132459468 0.9407414704152028
C -0.5689842348433731 0.8025284733710921 0.4058152747223339
C -1.5136659217687336 0.41510916928460256 -0.38864672499477043
C -2.4515170326605347 -0.04431611349262884 -1.154421152101456
C 0.5235875117972766 -0.0862018830623435 0.734057388629807
C 0.3205241936601126 -1.41280609310213 0.012838185375598122
C 1.86592011751777 0.44833722498290307 0.3490412338465257
C 2.781870250307555 -0.2981182471280423 -0.2422701466758855
H -1.3740338687888978 2.2932155299070884 1.7575620726687016
H -0.9118206732340703 2.867253701182981 0.13574770662177735
H -2.352746112813959 0.08847640474638431 -2.18050610653621
H -3.270755606025172 -0.5296269807378626 -0.7346047683179286
H 0.617742064881741 -0.326781451721206 1.814946628314431
H 0.8901218861178202 -2.227017161803623 0.47521165550647326
H -0.7683527558935428 -1.6452851244185736 0.08578307133788579
H 0.5821618759747514 -1.2924659237889153 -1.0652632442254135
H 3.72766966329287 0.14290151957384534 -0.4945078343695746
H 2.549455377714362 -1.323734176253058 -0.4515247102175957
