15

C 1.4852444830268206 2.0735314668180154 0.7753198509571536
C 1.4759001263636078 0.6100766992034727 0.6633308762982514
C 0.388655335898934 -0.020611953505985152 0.1491974075422478
C -0.6689023425290136 0.7874650181271403 -0.24602344635173337
C -1.830054447786456 0.7929015794722452 -0.7450131014770062
C 0.4265705293256205 -1.4543991806351373 0.05974121864774503
C -0.47730661066841634 -2.2686025104859775 -0.3890857867690561
H 1.143291008498868 2.5795345426680796 -0.15162186934905073
H 0.9538985835592666 2.4673895730956086 1.6395334426848063
H 2.3134303424978446 0.027247256403364385 0.9805363168391882
H -2.4644394914634793 -0.0333613214022281 -1.0788098244150237
H -2.3876595541550594 1.7619095044097257 -0.9133251851553168
H 1.3563206839499053 -1.9410623511036373 0.42374692643064765
H -0.2715610760768236 -3.361232305204225 -0.38118124983127255
H -1.4433876912971844 -2.020785896821171 -0.7863454404987392
