27

C 0.601239029781143 0.1037002716266362 -2.1083179478684473
C 0.2373748330653082 0.08290461906530625 -0.6596203478781117
C -1.0237720021173886 0.8641789808446775 -0.4957436679116255
C -2.135986552484909 0.3211625406879383 -0.036340411567659485
C -2.4059616159247876 -1.0325909349483129 0.3874761637486399
C -3.6708119258658485 -1.0868068522867709 0.7659704414606504
C -4.3087944770098625 0.21440575807576806 0.6173301640958603
C -3.386627303367482 1.0492760520014537 0.13811027407116416
C 1.2759261488359 0.7473271983288793 0.215224350406611
C 2.606507510213848 0.08722216165733204 0.10999680650973406
C 3.6505634690290223 0.780635568390604 -0.3098853266769483
C 2.8122437108838674 -1.3447002083861928 0.464053442779601
H 1.3528914943292236 0.8565687183042343 -2.379021350331102
H 0.7350864268508905 -0.8768739177808964 -2.565952306118895
H 0.10591673993385302 -0.9726736816423104 -0.3544267907174195
H -0.9719536891391564 1.905671539589012 -0.7768562173188072
H -1.6674213634251949 -1.8202568026583628 0.3758682857631699
H -4.138615193126874 -2.0103210055694185 1.1368613711589224
H -5.3486192482018 0.4241871092063678 0.863480872737001
H -3.6027578913511054 2.100423046302884 -0.06823384700455473
H 1.3711527248183846 1.8074053605534302 -0.08521245743813465
H 0.9153595738123793 0.7427261520486983 1.2618008540082906
H 3.5976192708018946 1.8311102799761148 -0.5909005411092387
H 4.6152250222264835 0.3140028255067393 -0.38948907659553844
H 3.7344187156959645 -1.3846665351775147 1.1140277878403568
H 3.055000770545126 -1.955251861223438 -0.42258471851046153
H 1.9947958211913304 -1.7487663824928659 1.0752887794851724
