22

C -2.3255402422158444 -0.48973990314977234 -1.2715790403071807
C -2.177201962780196 -0.9918637996558294 0.16164517421968624
C -1.9928355361396832 0.20327832735817652 1.096603738292273
C -0.7720464154311417 0.976752940726676 0.7208511351175603
C 0.344047204586923 0.4270798479803314 0.35832459813764683
C 1.5840505175478337 1.0433239704651942 -0.025912180884438432
C 1.6990726049139375 2.355496577797685 -0.04261307464576613
C 2.727012027612894 0.2616746149445434 -0.40040127740513937
C 2.634858945473413 -1.0279526791688172 -0.39060533238050577
C 2.4231397702974773 -2.3260890932542755 -0.34287163857351466
H -2.939688024481951 0.43264940105647376 -1.225723205066648
H -2.9453036383536895 -1.250932257347995 -1.8014095922317146
H -1.3398553657188277 -1.70349069670631 0.26220441085194157
H -3.1344652813574636 -1.4622653998147457 0.44487518656995106
H -1.868962344893335 -0.1610692608964832 2.1183385022727763
H -2.9059519056692333 0.8009597243405164 1.0241921951793092
H -0.8697760067507678 2.0463728824703065 0.7680410857280053
H 2.637457539332394 2.82899087836795 -0.33327596324370024
H 0.8351532044545833 2.937968613611215 0.24035093193783355
H 3.687486066494648 0.6253990415656034 -0.6997214649159702
H 2.057943004543027 -2.7481575795695607 -1.2492535649732501
H 2.6414058385350017 -2.778386151120785 0.5879393763207359
