46

C -2.5640745974775547 -1.011785394346853 -4.956817408708902
C -2.5557414724535175 -1.221178797008101 -3.5185834713377804
C -3.625551890935552 -1.504380333232674 -2.6129269183042383
C -1.3654583423632907 -1.1478601593409576 -2.9620450290738165
C -0.1761242009066879 -1.1607234231471364 -2.4096746091966663
C 0.5417846219754946 -2.39621282971384 -2.5297534232833727
C 0.14564344098660362 0.09138480052490461 -1.7976956068103116
C -0.009106484839098818 0.2384261036276693 -0.5162986580684457
C 0.33556704222884864 1.5656158504982762 0.10207774663329404
C -0.18579864644605823 2.680170942049848 -0.7324703057668385
C -1.6042171780329302 3.1463074765896155 -0.6220956869950521
C 0.6303881033637887 3.26199821624668 -1.5870411238064797
C 0.16451865758861528 4.377952134253104 -2.4448340685208922
C -0.5090604706555566 -0.8493596394429644 0.336267453515928
C -0.6506991203403789 -0.6621018582841126 1.6390892517497382
C -1.1123133684519617 -1.5748589151633503 2.6223314693421864
C -0.23730008714951617 -1.79466225379894 3.5940806278057056
C 0.629528114458674 -1.9191503351699057 4.567809555868369
C 1.0515614144503833 -0.6890867004626421 5.171033562928327
C 2.3555652122891213 -0.42702138700252856 5.149590756614598
C 3.307628066213446 -1.3724908329948038 4.529220597898927
C 4.590923576246256 -1.0686552345039286 4.526136960513557
H -3.1565619101862965 -1.8392646035853162 -5.431394394670045
H -1.5720124337576988 -0.9966372261289349 -5.441867652338796
H -3.37410905187514 -2.420864725377426 -2.005859746971667
H -3.916617098645135 -0.6593572114689626 -1.96277470812664
H -0.14977365498747378 -3.261834562649815 -2.605234945919564
H 1.1351047504444998 -2.355074172786146 -3.492505070569778
H 1.3123690087123143 -2.569404856745645 -1.7462221754077665
H 0.522937150488382 0.9427103999815765 -2.380596877045866
H -2.276556669085112 2.3125086229135503 -0.8682938451712796
H -1.7205545497987007 3.494543505343545 0.44627902089278526
H -1.7867276369310054 3.9991192350642573 -1.301355881809384
H 1.651150202226842 2.929294921883491 -1.6685858578442545
H 0.9766508930472515 4.6502543202147715 -3.1547652828512756
H -0.03227329883976392 5.245357805283115 -1.743953417290992
H -0.7583754853616028 4.119758988068907 -3.027434463997125
H -0.7599485289488593 -1.78345192702857 -0.10178749498739394
H -0.36619988912949525 0.3437498608751786 2.0159001487031594
H -1.99832199240992 -2.1105441021277986 2.7526164124617485
H 0.8946181933644153 -2.9139021970351315 4.7615864381341195
H 0.39340539226257165 0.0334379258226042 5.631037274832118
H 2.706598949416083 0.4896035528015503 5.591859744529735
H 2.8985367807986715 -2.2873526560180184 4.096671203953335
H 4.935065478376219 -0.16279010665548002 4.96069463734001
H 5.283933011255482 -1.7621882208994828 4.067208123218124
