15

C -2.854347291550666 -0.8000721324752469 0.25938543265296793
C -1.9646851675190542 -0.4878956179513599 -0.8375970247638663
C -0.7250470845753749 -0.15907489573295905 -0.4918688785534748
C 0.4569527260667155 0.13320479776774247 -0.03456404374508138
C 0.646616508446859 1.5591258350850894 0.2567057351232233
C 1.347834620474717 -0.9572062618659788 0.10605780945998042
C 2.6009652663087905 -1.0298893452463658 -0.24911864354857005
H -2.3324811417408284 -1.4535038092363521 0.9972151047338615
H -3.3274145203229524 0.050592319812199714 0.748155328730413
H -2.098580130929437 -0.46670697145887985 -1.873640439200888
H 1.7095982338058562 1.8201579059290278 0.4505244456937073
H 0.2357997237237037 2.155108194742251 -0.6032829978138714
H 0.08493382647360942 1.8168905066210979 1.194693478810606
H 3.103387611611158 -0.2032281721727651 -0.7154083535699693
H 3.1164668197268557 -1.977502353817471 -0.047875884617657176
