33

C 4.41267523041924 -2.2293725625406813 0.2207437778551474
C 2.936791197906391 -2.1615690411182893 0.14397793586567048
C 2.3370256175921686 -0.9907570363304044 0.3368289741427229
C 0.8951566161707478 -0.8984194278111686 0.26695071353296634
C 0.24035240303926134 0.2179670493553949 0.4479164581198188
C -1.2485216912881134 0.2133828668866516 0.35331184148082934
C -1.7338969504530604 -1.174404128135483 0.06494810545461811
C -2.537366462899523 -1.8132655053666864 0.9046971910342453
C -2.9996111381835746 -3.183679113606539 0.5913412659296136
C 0.9165971452309568 1.467361683016267 0.7870617419495818
C 0.7494311963362897 2.59791137697433 -0.18933922215707275
C -0.6324107569773296 3.003617867327771 -0.2967109741021714
C -1.0315022310837914 3.5092188578758354 -1.4366093164467792
C -1.3306140984213208 3.9949881622713357 -2.6087372854349375
H 4.796420965519051 -2.632432222133798 -0.747182932236664
H 4.75101998685762 -2.931965152918576 1.010668005603222
H 2.3267954339862214 -3.0366274490560583 -0.06472368672882016
H 2.9402070076151627 -0.14419429389017158 0.5354823332819267
H 0.30214475562943155 -1.8165897623221265 0.056895248569418494
H -1.5282865693004333 0.8185346356590407 -0.556035968453291
H -1.71318132147511 0.6388016012216134 1.2425630173482178
H -1.414323083396356 -1.6253666626643186 -0.8626090841433076
H -2.849039830971389 -1.3248403544837684 1.8151817533583283
H -2.3316929219681892 -3.934771441448855 1.0902139496172256
H -4.00744154361155 -3.3318457684617 1.017139589376525
H -2.9900816904432053 -3.3677005990245408 -0.5034462952568999
H 0.5004213354815749 1.8063125625125285 1.8158903585875041
H 1.9965415250658 1.3928478422803803 1.0016599194607738
H 1.4443419303661482 3.439204736127143 0.022181045109649154
H 1.0815911814968828 2.2097176074658442 -1.189432036748605
H -1.4143029226407748 2.959637706722895 0.44237104142719186
H -1.6687786726519158 3.284741577343912 -3.317505955932773
H -1.1964616429482895 5.043554388272187 -2.706210008285836
