14

C 2.6406191501119602 0.8894871764405144 0.010728356817916156
C 1.559021887224027 0.052738174174658745 -0.527663406533877
C 0.46908069059923513 -0.2017820433303598 0.18471477493953517
C -0.6401862063840722 -1.0446410526600078 -0.3348426937113182
C -1.9286320018186343 -0.3011993804684641 -0.25267104596065454
C -2.0414438505749413 0.9191239724431943 0.21435296080781785
H 3.5318599038593432 0.7871754352987403 -0.6489248121621273
H 2.978607271797869 0.5659711221196095 1.0339516640273416
H 1.6182396661019245 -0.37976879784153456 -1.5178067368920947
H -0.47297998981007566 -1.3352644432642324 -1.3895119368966187
H -0.7167215325517161 -1.9725496752584901 0.2984895572391177
H -2.807498317853955 -0.8391200635916974 -0.6125770461613192
H -3.0079739199705298 1.399992978937376 0.2454048105473499
H -1.1819927507304302 1.4598365970006864 0.5721479247461462
