42

C 5.275944177886909 -1.3387488049137355 0.5993630937844076
C 4.938898770632306 0.04969993315262561 1.009297160308
C 5.195816447435383 0.4623972824405175 2.2325494572167055
C 4.306048946691672 0.9639129201036891 0.011838784002941678
C 3.015060188716653 0.44007032325210504 -0.4779009247605868
C 2.0258833140405836 0.20012030922205779 0.3481465402296912
C 0.757520652700665 -0.3109134157814725 -0.10602993979583751
C 0.35772148831157796 -0.6142681495802514 -1.3080644821259997
C -1.048084251214263 -1.1356749757464903 -1.4764873026876728
C -1.653719781256001 -1.486228727221465 -0.1713600931127988
C -1.3246803921438333 -2.781655180126441 0.523447725437975
C -2.5009832350206564 -0.6374385151913576 0.3891756266540509
C -2.837091260149525 0.6412523656731461 -0.27844581742975666
C -2.5412249534996745 1.830668195889639 0.5197462719719439
C -2.9178715080467414 1.9463122572987799 1.7872708408083868
C -4.19708801975728 0.5846965752600509 -0.7982259564241256
C -5.117306783248462 1.2140063377353814 -0.10065408323849968
C -5.967978222527175 1.872441073144685 0.6639870510879059
C 1.1663388572869984 -0.4846674191668033 -2.4786111137876428
C 0.6394845604066562 -0.8311016958476685 -3.6659001712571784
H 6.343197733758686 -1.4802566709259783 0.39177613621641866
H 4.641708041820582 -1.6563207514495892 -0.2536695565511256
H 5.652548195898989 -0.1976457482527707 2.9521877482958856
H 4.950294003699322 1.4691237096292376 2.5262389621131947
H 5.0148819432688025 1.0079574008832826 -0.8621372438121405
H 4.221045286487665 1.9857320153734466 0.427824202310607
H 2.164958644047437 0.39570257166267037 1.4364177407911143
H -0.01798382532924204 -0.47900277901221355 0.690764091320703
H -1.682355903941014 -0.39222052391859646 -2.001770545442812
H -1.2668855830842896 -2.576720573978078 1.6102976656910264
H -0.3594012210615097 -3.121945389718882 0.13874748047007293
H -2.125294687565652 -3.536202354542614 0.3733502685347666
H -2.9783483254146725 -0.8405043576387932 1.3486632510039507
H -1.9840477397997385 2.6520406129293588 0.03526596158651346
H -3.4606954510918957 1.1240801763613073 2.228409506975404
H -2.6949180793941356 2.8338598095626257 2.376507252743824
H -4.568842608695789 0.10869267023261116 -1.664162599593291
H -6.4087750878586505 1.2875061874277547 1.4252674527448712
H -6.08539807337398 2.8900598827749957 0.40550649026049307
H 2.1702809463929404 -0.133151015533767 -2.5132019310979277
H -0.357072311285746 -1.1972301487161496 -3.7595499342941
H 1.2584151052768608 -0.7284354127456494 -4.535875067149732
