16

C 3.6774232288859765 0.17688997200058132 0.533428462217147
C 2.7015138204886564 0.03260993541283645 -0.5767583257734535
C 1.4791832879593292 0.5246987935429063 -0.45668470346761925
C 0.23305013448732426 0.7426397892338784 -0.19183298926921585
C -1.0570881591529913 0.9489045919298609 -0.39062874692829436
C -2.0179138402284376 -0.1910827419091692 -0.5032967280460499
C -2.586553151706759 -0.48023573768930516 0.8859772683126326
H 3.7602175641002553 -0.7924963162149592 1.108085934102322
H 4.694344710447482 0.29518274526894694 0.06641642094654536
H 3.0145403423504664 -0.4787659411233023 -1.4727302956767516
H -1.4733066552929313 1.944403547760425 -0.4801703020426766
H -1.4475743629995457 -1.108427252424701 -0.7913585732530378
H -2.8316379894151997 0.006162863179789031 -1.2012029361548817
H -1.7775066136813715 -0.9164262927407227 1.4821586386269108
H -2.942003430023123 0.4935117322561727 1.2775234912292204
H -3.426688886219183 -1.1975696884832345 0.7150799796004029
