35

C -4.401475529108074 1.468721961555905 -0.5843735932272924
C -4.658442397030599 0.6120100755166836 0.5892809959899149
C -3.74554626020288 -0.08421670672621369 1.1649849037760045
C -2.332847296869062 -0.17580038590820002 0.8050047450799545
C -1.7705650151244214 0.4470054917344726 -0.17539639303884857
C -0.2770401782866809 0.060338793364233284 -0.18833428566042792
C 0.49553278824898545 0.554257317798108 -1.0788026358141383
C 1.7862465862002077 0.6283201743368063 -1.6083607543373153
C 1.9203042382447255 1.475060719530636 -2.7409999417070305
C 3.085577470609117 0.04692213466693434 -1.2892599820064934
C 4.15482561959822 0.5063033836013497 -2.2539371952766434
C 5.0858162300467535 1.357624250419243 -1.9045630199298242
C -0.12316977854429369 -0.8483861814765467 0.9125481848992784
C 0.972093422010577 -1.6006212560541286 1.4809034982645752
C 2.18716262022415 -1.8171938113514883 1.3390942600979396
C -1.3564360258068195 -0.9786129993967365 1.4948500902028679
C -1.6721426592728768 -1.8265196313096363 2.6869697589144685
H -4.259134061404491 2.524142225248455 -0.357194292052176
H -5.200197404872308 1.3866834594761788 -1.351349486084026
H -5.701125025244122 0.5698115821344768 0.9942083392951675
H -4.097003784887753 -0.6841483292850558 2.0423178199288308
H -2.1838506932269404 1.1257620860970754 -0.8974086830052563
H -0.20005510240611943 1.2779423774165428 -1.7698500741909455
H 2.830307771350411 1.612701369786978 -3.2240863676441296
H 1.0082365962555062 1.9435500017667073 -3.0356853077511547
H 3.428483543108979 0.3633816049335872 -0.28111274897508975
H 3.0630513742265824 -1.0502509237439606 -1.4292530882490055
H 5.110951235604303 1.7551002689629382 -0.9083350745032269
H 5.829953055638089 1.6628424135041422 -2.6140498247161106
H 0.6103756996384613 -2.2483460070053565 2.404194606801554
H 2.6542445089956503 -2.551539589841035 2.098637145637485
H 2.9122121386573077 -1.4996866024164401 0.6940654299599548
H -2.6660930426862377 -1.581732865326184 3.1031640347464897
H -0.9394614416883524 -1.5586178683699454 3.501629578235681
H -1.5507892006167963 -2.872808534381437 2.3804993568466273
