22

C 3.4349764734465906 0.5053612960711544 0.42966670501138676
C 2.228834523258946 -0.02107766403049913 -0.29256783188308033
C 0.9913441050174365 -0.05235653256226983 0.5951608273756265
C -0.133636096952321 -0.5992344116158966 -0.25747178151749495
C -1.4296169426829006 -0.6917533581552884 0.47981413941103673
C -2.473563190877576 -1.2430412046886505 -0.46701721140351
C -1.9089784362408426 0.6577738094469014 0.9229878580428263
C -1.5512931037515112 1.7669969397523788 0.33358629777186316
H 3.951536984919148 -0.36506753866163444 0.890643803834896
H 4.113713431251261 0.9371235987242542 -0.3451784866496933
H 1.9978750296375347 0.6313023620569471 -1.1356195132058806
H 2.428472381632528 -1.057757346803519 -0.6225148520698958
H 1.2353683490692253 -0.7427755358676342 1.4281262673048738
H 0.807139207734153 0.9436307961759302 0.9893047037164691
H 0.1921351202889468 -1.6315323480877157 -0.5548452993947693
H -0.20265690867120323 -0.03687298318456496 -1.2063516586669991
H -2.9002269670522542 -2.2003895153906985 -0.09303812839677383
H -3.3274406135078665 -0.544115251366565 -0.6076403803227975
H -2.0504830925314366 -1.4300157481912965 -1.4789051708551426
H -2.5954091889985005 0.714502371358555 1.7868728835618597
H -1.9233978393397628 2.7098663685248106 0.69039519044568
H -0.8846932256496473 1.7494318964952706 -0.5099506519193406
