42

C -2.798206029935102 -0.061417029531059965 3.3595214261202853
C -3.2167724275311755 0.04183722716875204 1.9371782152838137
C -4.151036824813607 0.9021053613623453 1.6064605034213595
C -2.554352213606216 -0.8392999570461327 0.9471004924053541
C -1.0865187819015185 -0.5282667720543727 0.8365078877805785
C -0.8216301949265239 0.07246703442395577 -0.3030495087622503
C 0.47584320816128955 0.5427738411801323 -0.8039976535603698
C 1.5419247141809962 0.3726550378781669 -0.07290006077515515
C 2.892837221804185 0.757918936731861 -0.37996074148578396
C 3.270690721412707 1.4409387805337057 -1.6431373423925486
C 3.840824290287057 0.4877174319248677 0.5124374654866195
C 5.256278869485544 0.8583064170609356 0.25835290637333913
C 6.145025656994382 -0.31544300593933994 0.25594468069662973
C 7.354882280870819 -0.1440602533543705 0.7070790852124059
C 8.547389266818403 0.1378442281839209 1.1852809538102393
C -2.083185097868522 0.22156509305812844 -1.0487581282708909
C -3.004429345868344 -0.688863439528609 -0.40645879992154216
C -4.059355655830306 -1.3076067033340353 -0.8320301562976947
C -5.11188680431992 -1.7033941244643132 -1.464449741655751
C -6.30890493351454 -0.9667702777768473 -1.3243520337476853
C -7.454770355904733 -1.2683226460794372 -1.9196240702477605
H -2.5942685113865456 -1.1373152181308603 3.5812291659542876
H -1.8530195520732446 0.5333727700934521 3.521033654691873
H -4.609564805480712 1.5266824212194197 2.357900283373419
H -4.509851161539675 1.0339230641393133 0.5827769387764042
H -2.6208781673781423 -1.8824018497328059 1.2806332226476216
H -0.3393602038408936 -0.7589512820308928 1.5792951593490465
H 0.5696530152578948 1.0268430100833752 -1.7647603073064537
H 2.3973356639410506 1.6295495733959957 -2.2683838509994825
H 3.7716082986760204 2.4141634869440503 -1.4310515825801342
H 3.999178973651937 0.7899037922844729 -2.187265705951667
H 3.5493675469039268 -0.011625702841260063 1.4318946483061303
H 5.613256072416675 1.6326212908570015 0.9675521696533277
H 5.321667723732405 1.3134824445653017 -0.7479115922594759
H 5.92973098580465 -1.2946042120504022 -0.06803089024621775
H 8.645927091185124 0.0006533133468956949 2.2287824057873755
H 9.2438938705925 0.46405323080671884 0.4598653318386052
H -1.9806719252146217 0.12928015521158684 -2.130728375629711
H -5.095678166164206 -2.5573877892006855 -2.079472965971718
H -6.331731490568348 -0.07157202242671001 -0.6811587371144026
H -7.4733936765681666 -2.143675802943473 -2.5600158902272896
H -8.307849145941518 -0.6496798539883002 -1.7517815249872457
