17

C -2.4429823431377686 0.5746951718977558 0.871187087123361
C -1.2377556620650907 0.6833853668286756 0.008110662513460447
C -0.058138784294480814 -0.14169030016097528 0.535535829418374
C -0.5614066076881259 -1.5891770203077575 0.56105573337993
C 0.9987418469566433 -0.07451801517833231 -0.47292466684378315
C 2.1611051711947407 0.37089000208103284 -0.0727806493937224
C 3.2945105730720825 0.8308332102107289 0.41966302220554824
H -2.9685253196377923 1.5486695719790067 0.9934677183154826
H -3.2057279631560234 -0.0994702452317018 0.3866132823311027
H -1.4212380750202769 0.3055198191483438 -1.0187276850810856
H -0.9154532936243744 1.7604456362669219 -0.08178140714270433
H -0.5642585707586448 -1.9328959141707587 -0.4967822784009694
H 0.1910933692043921 -2.206728464235402 1.0959908549436648
H -1.5680642728976413 -1.657648467508976 0.992870247905035
H 0.9605835487313407 -0.33751671223922464 -1.4949480195460356
H 3.401095583440265 1.879260862638575 0.3618093756834143
H 3.9364207996807896 0.08594549798206366 0.8036283992542067
