29

C 4.205404086544689 -2.3381291820910213 -0.18654817194690773
C 2.705037270179847 -1.9890167481305037 -0.26483238693226474
C 2.3713103236188107 -0.8336787397593521 0.18667408941860308
C 1.170183470035453 -0.07877175731300723 0.3295822443188829
C 1.3442511147049157 1.1955732413322824 0.7809792747406743
C 1.7426180245662823 2.4616181533730925 0.5027334382276201
C 1.7118530393565448 3.7545486907409225 0.5855539710228769
C -0.16168717190533485 -0.5038068557055785 -0.05631540180429962
C -1.2374576743122212 0.28770873901103333 0.1949167380007985
C -1.4037064905553254 1.5834517601964337 0.8260004181071093
C -2.7070143141160017 1.915367249337056 0.7672133080530057
C -3.4475569591389945 0.8782791362934412 0.11169292580545294
C -2.5808580194421875 -0.07440069172231442 -0.22138332490667745
C -2.877364794784377 -1.3487332813222703 -0.9101504838010931
C -1.6781347116172434 -2.1272081652138835 -1.1354859323320738
C -0.47305917168050127 -1.7326627997370845 -0.7467241708743122
H 4.426874025181321 -2.5573248141833655 0.8799912441106837
H 4.755672143770618 -1.4260776119885448 -0.5001719043994368
H 2.1172896020848717 -2.7399940215918632 -0.6722579614120384
H 3.3017804481188286 -0.2610178482161116 0.618839956762299
H 2.147771342713339 4.228138758582669 1.4358639301662866
H 1.2578181800418486 4.335607500998325 -0.1843944424782786
H -0.6532188226143322 2.1850022860783604 1.2979391732819765
H -3.099682520989333 2.845491022938159 1.1708364838484695
H -4.518830428856265 0.8752063948471154 -0.07624227777006314
H -3.551468426978221 -1.9408771731747902 -0.22532676932731505
H -3.408392945647899 -1.0992864352966523 -1.8604980548527552
H -1.773664218524334 -3.0829958656379834 -1.6495079290401418
H 0.3142336002458231 -2.412010942643795 -0.9989779839873657
