13

C -1.627429512244849 -0.34119770457698695 0.6618248790174
C -0.5845295174167647 -0.1778394072811795 -0.4302675434513464
C 0.0009153619213474775 1.180620447234741 -0.26398251720259336
C 1.2637269774555986 1.0202951557061013 0.07514797586288789
C 1.5691268881464284 -0.3918195123238175 0.1484824636365345
C 0.5095278747340276 -1.1173626260442489 -0.14151279288650367
H -2.2934830076075317 0.5267631565352537 0.6808838439242951
H -2.116910976779921 -1.3148172281469455 0.6320823732521001
H -1.0218040879208605 -0.3102098754765995 -1.440196770827881
H -0.5790053568421214 2.07686009845322 -0.4145189902280201
H 1.9295864838087944 1.850291902709722 0.259756464860517
H 2.5284577645913386 -0.8104242581728581 0.4042135385235278
H 0.42182110815451673 -2.1911601486163823 -0.17191292448092857
