14

C -1.0354986242666144 -1.283007159133215 -0.8148470349560146
C -0.6851348083028829 -0.005371511314515438 -0.1759986359443631
C -1.7417541359731807 1.0180319987409436 0.010616258388719787
C 0.531666680763264 0.27771298046417797 0.24252465520409464
C 1.6193358243016722 -0.6832577333887435 0.0905404017277621
C 2.8436979644572364 -0.42898210256823627 0.49841471139890414
H -1.0127369590593644 -2.1509345902810515 -0.14430289139235927
H -2.027503704418797 -1.232939319991286 -1.2796026586733686
H -2.561529889149033 0.9339499570882798 -0.725809091542449
H -1.3458662623922366 2.0515746093552205 -0.08440871475184983
H -2.1014137527641505 0.9073724718933734 1.0667545447211808
H 0.7819832014309845 1.2269267643523043 0.7147305876593021
H 3.092001966317067 0.5115298194412227 0.9663584369630982
H 3.642752499055856 -1.1426061846585753 0.3834727932663452
