14

C 1.4173261696094135 -1.4648744738380726 0.5712534318485373
C 0.5909478302020388 -0.3218436570868751 0.21218890021248776
C 1.2295415559499832 0.8139555083684371 0.21932093885740644
C 1.8227581357060356 1.9955518010307451 0.21054172444247526
C -0.7940944440155124 -0.28346051830289515 -0.13823269200911614
C -1.9077845698835505 -1.133980306169664 -0.32569960868806574
C -2.059125692243307 0.30966131385177553 -0.5179843504589556
H 1.8069070899912336 -2.0104296261633827 -0.31370545443062364
H 0.9393575481307238 -2.17141593205979 1.2848517525980652
H 1.7809744774329648 2.49772700220553 1.1347204389874173
H 2.2447539466257638 2.2504759032725343 -0.7192620371231051
H -2.2923755565296196 -2.1297437547476448 -0.31532159159823303
H -2.5975605952874927 0.9197974830290551 0.2425522075396342
H -2.181625895688823 0.7285792566101169 -1.545223660177962
