20

C -3.826912230895012 0.052646165410612136 -0.022941315055133332
C -2.4272082440018075 0.48545358298247643 -0.09764978116228504
C -1.3938144830505665 -0.3252278557322942 0.05813637245891452
C -0.025586713150198163 0.14236454874083737 -0.023203795696161236
C 0.9970915643694152 -0.6628561366915939 0.13138994843381444
C 0.6931139410002966 -2.111217025401113 0.40014812978781217
C 2.3628622723482153 -0.2469523032042934 0.060562150606315826
C 2.6059388879719427 0.9961165650446422 -0.22818998777511032
C 2.741545008159609 2.2652822136065156 -0.550429777647747
H -4.270803484997879 0.30086199336933556 0.9802027546569297
H -4.4156200661134735 0.6423226562333929 -0.7553085189034943
H -2.2087290348024964 1.5258056380118574 -0.29087794697568253
H -1.628427486409075 -1.3637307249787765 0.2512019927991185
H 0.18093667918348547 1.181190071811961 -0.2160875689007741
H -0.04387886121894888 -2.4995572141880165 -0.3387726486170466
H 1.6331360788156077 -2.688439295717672 0.3266908017747876
H 0.2508314057377795 -2.2284623360284934 1.408086588182971
H 3.202473006814037 -0.8477021819030693 0.21932600932351393
H 2.805017490141815 2.4608269397900426 -1.592424809381706
H 2.768034270097002 2.9212746988434484 0.28014140209088684
