19

C 3.520564059505446 0.6871997478247044 0.7281020242319522
C 2.8853298934545526 -0.5921789608877028 1.115060518072478
C 1.8048893688480352 -1.046777665839879 0.5217617595604694
C 1.2305260916804333 -0.2697749503664218 -0.534185580403843
C -0.0817500767424973 -0.17336934407291352 -0.5306710559854348
C -1.3718587651644 -0.11419961666271516 -0.39070978002989587
C -2.0818485864577116 -1.1907725772291438 -1.085806449571504
C -1.8915414263919312 0.9394500556753794 0.38545522254744785
C -3.205414222955999 1.046527720811432 0.5607880996710894
H 4.1185048986535895 1.1410142779351942 1.5231657344134906
H 2.792218137454691 1.405459828397865 0.28356149612356163
H 3.331065388707292 -1.1602716210418973 1.9091178908253357
H 1.4086064356352015 -1.9945171471789551 0.8719391499914427
H 1.6728467005122096 0.2500063991012733 -1.3298534721416884
H -2.9201886526931013 -0.731987156092733 -1.6525536858526857
H -2.381795058825069 -2.026685686362203 -0.4566934769917746
H -1.2737696280124766 1.6786377013189928 0.8547314071367744
H -3.899850707823888 0.3257553977388604 0.11014248636341946
H -3.6565338493846444 1.826483596930726 1.1404208961078974
