14

C -1.4183849438981475 1.2500364344332253 0.31755376914541705
C -0.46835543734770263 0.20643708847799613 -0.16689344287209537
C 0.9665284900855909 0.5495675189860464 -0.3877663922217834
C 1.90699889371192 0.11112858052508999 0.41718993013884204
C -1.109763643653643 -0.7553175450758344 -1.1931218926408824
C -0.7115668416653798 -1.2339394805518726 0.1688340928910162
H -0.9624962238719361 2.244208549484419 0.4647278241055658
H -2.0862325302347613 0.9290008746202426 1.1240677264130419
H 1.1834610713373492 1.1738426432622497 -1.2407269051507857
H 2.92885284698101 0.38392256327810576 0.21916785581257514
H 1.6914370979525999 -0.5103794592911264 1.2664950020989374
H -0.48485005962598937 -0.96897800858817 -2.06722046959693
H -1.5493016681682723 -1.4217348961850456 0.8969073013929851
H 0.11367294839737176 -1.9577948633753162 0.18078560048411324
