29

C 3.8739915178177675 -1.9023296990672929 -3.8077576465969614
C 2.963439990751482 -0.7651513139093294 -3.99977281678184
C 2.080408999053454 -0.36931391222578414 -3.0834352784794
C 1.9596808019910057 -1.0431245354190295 -1.8229252748781322
C 1.1624206831467394 -0.7931639253392084 -0.8280398619069593
C 0.16601790869258382 0.20987897136351186 -0.6617232002664842
C -0.0816124698094391 1.2015154540668027 -1.7781222733607294
C -0.6149548214003016 0.3991293316334617 0.3996241666516764
C -0.566213517462488 -0.40984000498302564 1.5766959238779026
C -1.2596929121502494 -0.33706365096078483 2.6680453832950692
C -2.2954601912870114 0.552160063968004 3.0808119343108578
C -2.854700092864059 0.39704423677744677 4.29347112054429
C -2.8253480960855395 1.6640304860043071 2.269136234660021
H 4.544207855057162 -1.822969758798998 -2.9541073105763656
H 3.42841223989162 -2.8852617817596413 -3.981876805068628
H 3.0107400449353743 -0.22478345491439702 -4.92464165838997
H 1.4626615625694903 0.4702624301096836 -3.3198656426125295
H 2.6760674495595733 -1.9070358348585617 -1.7199169393439926
H 1.2781961237190251 -1.4801377404589802 0.042162848331839184
H -1.167989517625782 1.3331834781217904 -1.9387643459075832
H 0.36323958043346327 2.196183033027247 -1.4856630647340252
H -1.3113451017908557 1.19963446320764 0.35993727482651466
H 0.19994245498509233 -1.2409361673129478 1.5418808254968954
H -1.0105265957879737 -1.123763751752972 3.4619733170097184
H -3.6194732724780483 1.0526403422743178 4.5997573168664685
H -2.5005373264660524 -0.3903004591357527 4.905737324983823
H -2.1011319993883446 2.4674011944982577 2.049030012471465
H -3.617083266913933 2.211940318075589 2.904337239422645
H -3.34335803112693 1.3401721878241448 1.3388346041196322
