15

C 3.2735618655214687 0.1942637775498715 -0.18236697412433697
C 1.92527614813607 0.6059602927721872 0.2087043438371799
C 0.8850588288327065 -0.11824854874480685 -0.12559916719061162
C -0.4738968104550309 0.24186061484470883 0.23509475139469468
C -1.466357086321718 -0.515749926670646 -0.12458534308491097
C -2.8479991237759377 -0.14563294290526893 0.24459070320726917
H 4.064654478833658 0.41825658332939386 0.5242625869102218
H 3.3043560062650554 -0.784683976024746 -0.6584455843177489
H 1.77856820100999 1.5030953717478464 0.7716359530175593
H 1.0902114358186992 -1.0377466776070887 -0.7081928840943225
H -0.6416462707870348 1.1358332293910696 0.7982535282113784
H -1.265333398773585 -1.407307334380308 -0.6897637569054631
H -3.611046202580647 -0.7637873577456263 -0.3033773899682389
H -2.94588399593008 -0.252000635900272 1.3452882138783977
H -3.069524075793591 0.925887530343694 0.02435346673856437
