20

C 4.928631006145952 0.3384411507706064 0.07911564927325984
C 4.085010280417395 -0.8423435383350331 -0.21034692780554184
C 2.8108859619315303 -0.6659886808779514 -0.3813366701723119
C 1.511005012262712 -0.5887106364741065 -0.40542145871781904
C 0.2544441371122249 -0.3239717821701615 -0.15622074736900896
C -0.6351594812045679 -1.3619735246920295 0.4320200097022396
C -1.9157182915738873 -1.4301901730763913 -0.2616709250409723
C -2.758621200242242 -0.4475442642726 -0.021822061570598232
C -3.4830402041928505 0.6099999171013495 0.21859423801080746
C -3.2575672649849268 1.7525097356214276 -0.6699283280256266
H 5.971739535232029 0.1095134676064363 -0.21090472842743072
H 4.881998652442047 0.653500730416731 1.1447982474786174
H 4.538137420901029 -1.814529909703649 -0.2730620492810734
H -0.19662591560234025 0.6402795913122139 -0.358879027314564
H -0.7596608290691735 -1.181321091929356 1.5066236041310102
H -2.2928023728890428 -2.1454518779926306 -0.938955494731994
H -4.147746709782513 0.5099679681383271 1.03354039709227
H -4.123940429935791 2.4421972722401426 -0.7302909460134868
H -2.391552706782283 2.3414356168399317 -0.2457330309534061
H -3.0194166001853526 1.4041800294768225 -1.6945655897368814
