35

C 2.2206172434829017 1.9133359730713202 2.458170749823591
C 1.8625958120608495 1.3105638587209931 1.1495523407939205
C 0.8175835931193917 0.5103609343677835 1.095983557388507
C 0.4445109463239813 -0.09826284018907903 -0.19107012571079718
C -0.435217410998904 0.7880862802381897 -1.0008791555394887
C -1.52458847018827 0.10249907970643085 -1.3060852556604519
C -2.651056642319813 0.6357048124585644 -2.1076141185409165
C -3.7232847526519195 1.2083515926747537 -1.2545809081195964
C -3.617002216439936 1.4192102742357644 0.03087046782642972
C -1.4212525344955718 -1.2306149710537357 -0.7301431190685705
C -2.4667524751767087 -2.2725353794952885 -0.872802793696965
C -0.2820320127306791 -1.3631598067663455 -0.07863099069376653
C 0.18359357899032977 -2.5445566552445245 0.628686894651953
C 1.3336833186124124 -2.6010567167976824 1.2561700865154228
C 2.6861484682266448 1.6250145795640503 -0.050091488987548095
C 4.081148713358619 1.1906718162963217 0.18419051160479616
C 4.391477280058572 0.3591809239953263 1.1503599831973674
H 1.2529372379445356 2.1864014268937297 2.9568472474924388
H 2.7476347401127295 2.892037989323544 2.2823040330497606
H 0.24712033241711354 0.3026340161936872 1.9662016466116778
H -0.16653677408754547 1.8029671914290297 -1.2564734119080265
H -3.1336308549796996 -0.16741136596739734 -2.720397507871222
H -4.645042878655439 1.4586654803725763 -1.7599164453811131
H -4.431475106681205 1.8362127561749189 0.586747552263862
H -2.704315813019342 1.1729740135331408 0.5395489791073812
H -3.1750205546502626 -2.2834225324478683 -0.010652165758930176
H -3.0797270215913795 -2.120774917105755 -1.7833445535272414
H -2.0199407724191376 -3.301221772919327 -0.8924402146714027
H -0.43708602164842353 -3.448250119225866 0.6555727968554059
H 1.9983514108179234 -1.7241231022798473 1.2629299528382267
H 1.6731899287673553 -3.4725593556200933 1.7758577972131726
H 2.68440948072895 2.7337306177097314 -0.2588215306900997
H 2.271464370360989 1.162113442951765 -0.968439726082337
H 3.601802099387487 -0.01932681537360263 1.7943659291624185
H 5.415693757963438 0.036559290573892844 1.326973901127239
