35

C -3.5609817205664087 -1.9593340339907437 0.11666077828539863
C -3.6271362184932916 -0.5209996254299186 -0.1736149795390529
C -2.4833139788097416 0.030146863740711953 -0.4100255657793754
C -1.308961548936389 0.6431216319616845 -0.5127935500242659
C -0.7387650596712846 1.1275397388203618 0.7195664006986225
C -1.4427712281062084 2.287619299874512 1.334001990034624
C 0.7086318419737573 1.2888855821416403 0.7560722467987405
C 1.225173827394286 2.3893899862722074 1.2590993294480903
C 1.6416906795650474 0.27033585637595015 0.2524254521584964
C 1.318292509813757 -0.8908425328466704 -0.2843621613437428
C 2.5417449829399152 -1.640484454401773 -0.6695000326946798
C 3.619781178796235 -0.7327485792125499 -0.2720653831783529
C 5.05811371479625 -1.0127074306547206 -0.44226031784655756
C 5.47606939209039 -2.1386373107521544 -0.982457771639003
C 3.0768067781035127 0.33577955025835043 0.24453388935318515
C -4.78121827046753 0.32388504273871 -0.22153126808121607
C -6.0165361477300365 -0.10328536862977764 -0.0005959542704556442
H -3.438412492482333 -2.5841818130353746 -0.7897034296904314
H -2.7550494916162798 -2.132874190672005 0.8554899683074578
H -0.9826834733803933 0.6732878007099616 -1.5131585469003899
H -1.177019162466817 2.4543489903034925 2.3964549552847054
H -2.549293961091103 2.1290531866134286 1.2489342730457105
H -1.254251410567331 3.228172270614886 0.7523729979102829
H 2.3013910443551584 2.5592479475937084 1.309675190620886
H 0.5674682927268013 3.1529554151846044 1.6357580499124547
H 0.3171223507246193 -1.2887055625908437 -0.4442942639899362
H 2.6033554334965237 -1.7761021211690535 -1.7784737013421372
H 2.634640507670582 -2.6014337808644825 -0.15623468776545502
H 5.796121443500962 -0.2950605040760532 -0.12494618977760161
H 6.527240625369629 -2.335024566492364 -1.10298336598142
H 4.77224224578666 -2.9058392575858565 -1.3239598696590182
H 3.6653077565075565 1.1754804470045146 0.6231801437783221
H -4.662602584522577 1.3738199662877162 -0.4494092496971289
H -6.249996019167707 -1.1314583955494828 0.23485700810559532
H -6.8222018375360145 0.6066499514574666 -0.05860713488754279
