45

C 0.6065063730400421 -0.9534049855420931 0.8594622536560613
C 1.1566730460527437 0.3975231187409192 0.9477747250481384
C 0.3677461866783319 1.5051083633037836 0.38934316486025655
C -0.8084638149668155 1.3014409053682354 -0.15074153173590238
C -1.3647759557952592 -0.05419434934087469 -0.2069249980098516
C -2.3518250620933006 -0.27163550103765033 -1.284651916997812
C -2.9145090986566484 -1.4553016950254165 -1.3907047069498943
C -2.5864025960574755 -2.5231842181202855 -0.4855570711086591
C -3.1487474410885943 -3.7192688979679196 -0.5851981420362325
C -1.5751911486952193 2.4286655711533975 -0.6991310865241678
C -2.923670252075138 2.5914568059397016 -0.007188775902807311
C -3.5883364680631145 3.757678237463237 -0.6547138748307132
C -4.846463129210515 3.6867342136475743 -1.0905218823510694
C 2.3284483456498144 0.6055745734436891 1.512920422701422
C 3.092022464020578 -0.5572411506681494 2.0627540955329127
C 4.109523104976256 -1.0548913920879717 1.0941081667291053
C 3.4631307518620718 -1.5122623624604 -0.1276413834980551
C 3.2305745454319545 -2.7891963298758653 -0.24607688349783888
C 3.0162928502840094 -4.083061107171443 -0.2622395584860973
C 2.9080014366717535 1.9256605840940757 1.6263741073306464
C 4.08090899402694 2.084789806153656 2.2124659282172088
H 0.6147918659968656 -1.453963643491017 -0.09014494718474479
H 0.45736632588254933 -1.5062596504571883 1.7702166122620047
H 0.7197966779789671 2.523224459018749 0.39930324388670857
H -1.8500720415582115 -0.37104982739308023 0.7411648691760792
H -2.5840936182805567 0.5508589055284576 -1.9573396284638678
H -3.6326903455229673 -1.6164847389394943 -2.1734235137105227
H -1.8636937828313962 -2.360139527761666 0.3016035287324831
H -2.9034128293607604 -4.511878277395249 0.0887983783344522
H -3.872227469212919 -3.9127532854930083 -1.3587056324642817
H -1.7266156899213898 2.3823141719799277 -1.8028582552505297
H -1.0578906368668977 3.413514380558197 -0.5252328087436273
H -3.52871511237228 1.6813885260595185 -0.03642644880623171
H -2.739160648895215 2.8564913538584666 1.0596597948292383
H -5.4540553532724605 2.787263904391044 -1.0010478506693783
H -5.283632727102807 4.554705048401736 -1.5514188359995804
H 2.3897061177385406 -1.3394874540069799 2.36504854642107
H 4.82311959422746 -0.2438574922185672 0.8198434044523002
H 4.6825392412270075 -1.9106329078326492 1.5532414901732112
H 3.141323036670927 -0.9385824806359242 -0.9675554259439255
H 3.812940676398402 -4.655090671508092 -0.6809968687190354
H 2.0874147916819203 -4.399122755436062 0.14029832729269837
H 2.42634582505048 2.821944636296428 1.2493198212553445
H 4.497591485725159 3.0978453515189117 2.2836401180342634
H 4.591881484624386 1.2387617849445316 2.609704142983138
