20

C -3.658906879769548 0.2656814066602174 0.02204168636418955
C -2.4157032779410104 0.29590166808244384 0.8194644879713309
C -1.6309794699236027 -0.7312481498005289 0.6567753316691306
C -0.845143644772587 -1.744742525208402 0.3713964148422878
C 0.07563222267551802 -1.5370171382869984 -0.7579126030415141
C 1.080924151429964 -0.5171849494817954 -0.2926511051851614
C 1.6047972151187961 -0.5526640390694207 0.9241890178050303
C 2.541245554181276 0.5443868279970959 1.1048356823599033
C 2.559131518313736 1.2254489624182785 -0.026248086358643764
C 1.6381038611713261 0.6248569321407794 -1.0261612823982547
H -4.55385599278983 0.5368725758161529 0.6093441957358643
H -3.5120737266608475 0.925639381776669 -0.8481380117588971
H -2.0699031266820858 1.0203254144029776 1.4950543623179242
H -0.9780731145759953 -2.5795615587491274 0.9906489728928765
H -0.5024402614649599 -1.0215591130720911 -1.5777280578656523
H 1.378168639910806 -1.2942272334943519 1.6986737904295315
H 3.117658565652156 0.7638402098040522 1.9994829695859786
H 3.1827949709421612 2.1154457342989934 -0.17983686100151586
H 2.167714607326799 0.32909771703414553 -1.9549291024671582
H 0.8209081878581777 1.3307078767308467 -1.2426643637995751
