32

C -3.461401491449388 -2.4518116336582847 0.18192131231982084
C -2.8395320947903553 -1.1215838818859432 -0.011745594858810491
C -3.638584802051621 -0.09953698016219999 -0.1411140114936878
C -4.3601014226363 0.9761922528605366 -0.15421137421511533
C -5.255954113533698 1.8936093538533794 -0.0031218868081314757
C -6.123406143220503 2.825742075323216 0.20085206458716884
C -1.3956898539639029 -1.0336939687655937 -0.04588473940599292
C -0.7282732228031836 -0.8910507346989318 1.0725023756616043
C 0.726679744760211 -0.7837994009136817 1.235935477344502
C 1.4652000481305487 -0.8321415304863817 -0.058030543813704344
C 1.126461678089571 0.33263798975994463 -0.9446578517728619
C 2.937879597371093 -1.062796280215592 0.10181940737853885
C 3.707570766034183 -1.115236161915453 -1.2081445211584778
C 3.8969720438306297 -0.023086902863346474 -0.2310174850095713
C 4.429979167222722 1.095100435881049 0.21943685563750046
C 5.102902272766682 2.2021450371874023 0.3595521330159375
H -4.460051582000611 -2.532248915027182 -0.3148664137945052
H -2.8078182812859485 -3.199484609196017 -0.3287538595211855
H -7.156995349405312 2.5558429787524504 0.2567971338124703
H -5.876997347287525 3.8741392022090326 0.3208776173184861
H -0.8901000033167978 -1.0922350854275085 -0.9806562707969316
H -1.2880346994200234 -0.8406311117965735 2.033526963376984
H 1.0701635567691898 -1.6260032252460423 1.8907728376673592
H 1.0175475743103266 0.1414108983870959 1.81794042606471
H 0.28385748846121966 0.9270076063064402 -0.5557117125438663
H 0.9251232927677082 0.04927866546862171 -1.9989034747388101
H 2.0046152289179693 1.05013941837235 -0.9009022808445075
H 3.196596032177108 -1.7923990216057815 0.8883204653867278
H 3.1808756457245893 -0.7856709004124914 -2.1322095005197896
H 4.507578123415384 -1.8836276523645017 -1.2919852600279509
H 4.689005301937234 3.096378106148944 -0.08083367222503528
H 6.013932844479309 2.1474139761310522 0.8985803131378345
