20

C -3.277029778385664 0.9765397629403806 0.13719553185926223
C -3.3241792246324984 -0.3986254224436946 0.6740765728562026
C -2.5361417115926765 -1.3407590139116183 0.1973075629740856
C -1.5565022088038096 -1.1114790732807678 -0.8927093085325571
C -0.23359157428597394 -1.6484170103014353 -0.621545478226833
C 0.6179525055011564 -0.8786403037074362 0.0035839009830385
C 1.4023194503105718 0.031152618920707423 0.5405664512891333
C 2.114297752071518 0.8689846275716084 -0.36202372608466754
C 3.4131291274995177 0.9848279303352713 -0.16007869588913537
C 4.696974145374731 1.037800395809237 0.11727175797142243
H -3.7460752049629553 1.069718886165855 -0.8501570422580769
H -3.626517819498004 1.7133714283999528 0.8789125802237635
H -4.010590396810391 -0.6332062159802652 1.464066814358529
H -1.9719821439347578 -1.6042153225612645 -1.8014330277706825
H -1.5279909380972378 -0.027097478862006443 -1.1029510614002493
H 0.15678933282133323 -2.5968800734509254 -0.8623555074948692
H 1.392122276776868 0.012263069859491584 1.6045081170359912
H 1.7665025691314327 1.4293221411246624 -1.1899564008973733
H 4.967821497895192 1.8129630023229542 0.7892892809401105
H 5.282692343623362 0.30237605104959864 -0.3650891303527821
