18

C -0.8527261717117822 1.8653773953787 0.29444485971210266
C 0.02628042678653639 0.7455109868976972 0.7880539993839116
C -0.05264075273763205 -0.4618981034143239 -0.026354037276901204
C -1.289249124538581 -1.215279357097712 -0.24383841286662603
C -2.43617356241184 -0.8475527430340172 0.29099885717794743
C 1.0445387107401427 -0.9115035746702694 -0.6054894511945145
C 2.3588237173219797 -0.22016078185371582 -0.44992758905402014
H -0.2382317815477264 2.549021003095541 -0.32176312384347877
H -1.4092436270507271 2.381315587209247 1.0757625358122618
H 1.0635718952981774 1.1141470123845079 0.8338647523007462
H -0.231161234229612 0.4524993826676763 1.84352886394348
H -1.2845094901674865 -2.1053876948422565 -0.8597327580954622
H -2.536099866697293 0.021030830431751538 0.9153507608570423
H -3.309921205401725 -1.4373792063681128 0.09760699447445717
H 1.0340869532539971 -1.7995614706459788 -1.2162491444743362
H 2.3193505184196885 0.8078315958047896 -0.8067308798753942
H 2.627606751994589 -0.18102512079723013 0.6468592844992702
H 3.16569784267933 -0.7569857411461492 -0.9391706850631656
