23

C 3.9479519113115353 -0.868011616982858 0.052185493326392066
C 3.7535083929874458 0.6482363596281968 -0.07206076676558212
C 2.5347831433944306 1.0186893633543401 0.6268909594740901
C 1.530353793440591 0.17150385068559248 0.5109901724481005
C 0.5561069627130658 -0.6820741630789104 0.26995645883210506
C -0.2244294956505474 -0.41852154519626533 -0.8787492641503363
C -1.5132014393718056 -0.2118411878088462 -0.6648479952881633
C -2.7706788036335173 -0.03354902654023916 -0.3128316837600225
C -3.574849995796614 -1.2333527820342647 -0.288420491219761
C -3.1159671268415514 1.3481931459422858 -0.009939730981152584
H 4.33286005510266 -1.138067676773914 1.0403809830213473
H 4.535189060917749 -1.2583936188227045 -0.7878684165900995
H 3.7307381644823936 0.9423661224422206 -1.142230760127365
H 4.649278498156795 1.09664649220234 0.41174650218550557
H 2.307297134708727 1.8596119467144843 1.2191852741888953
H 0.5041857453292082 -1.4563288777203809 0.9899592154741428
H 0.0049555385068332635 -0.3490817037953077 -1.8981477786695964
H -3.082815200680901 -2.1436068904806214 0.056303427514000165
H -4.448595479750124 -1.0717359626612633 0.40980614316990255
H -4.035878803433007 -1.4637922823868184 -1.29362824248138
H -2.3232537870524386 1.9018070506795672 0.5583770477207192
H -3.269265057599669 1.9398420538498415 -0.9494280039803523
H -4.028273211241654 1.401460948783542 0.6401556248646065
