22

C 4.940945722984224 -0.7551582730912296 -0.5964285719415988
C 3.449434369288667 -0.8837608341157135 -0.6482664862321436
C 2.668874972855996 0.07371339444455399 -1.1043969697560738
C 1.201804411629079 -0.12433340011052461 -1.125435172610434
C 0.5691720530693363 0.8951934218791792 -0.3069447471045046
C -0.6218733752681884 0.5986180973731912 0.15342878282781264
C -1.795818722656204 0.18276296317542107 0.566746468819349
C -1.7948397723340295 -0.5291292133584737 1.819323694624119
C -2.8752912292466037 0.5127545367691146 -0.31147985328690136
C -4.14319417912549 0.2620485667429328 -0.06784786610031844
C -5.2186702710206925 -0.15573553489187345 0.5626613876101894
H 5.3040691241708045 -1.117238245397935 0.4026594877586434
H 5.182162391014215 0.3143035546359168 -0.7500254253397992
H 3.029862006031899 -1.802202925634409 -0.2934931854948297
H 3.0791212332384474 1.0029565701575456 -1.4643269020968877
H 0.9124259759497311 -1.149373163214186 -0.8461346613907057
H 0.852131083323866 0.022053202981996138 -2.1860908309714637
H 0.8904644801792128 1.8461727073764869 -0.006327079550747157
H -1.8083312519432682 0.1989044682560496 2.6670258207954234
H -2.5450724017986097 -1.3296119446654906 1.9310414108234624
H -5.720882682579303 0.4784832943692479 1.2636296066924138
H -5.5564939377602975 -1.15071541941961 0.34068109192490775
