33

C -6.493743534004338 -0.2640761124181933 -0.09190026416346507
C -5.665460115456442 0.918634128681709 -0.3232803054756481
C -4.558570231044307 0.6985615703640341 -0.9915850703191786
C -3.4225274927877853 0.407866536601576 -1.5711718789254452
C -2.348907584989636 0.04257660455425691 -0.7103477661914538
C -2.024812539915939 0.8200151875894842 0.3077450011704005
C -0.8827790158986814 0.44184814747743806 1.2324186932930214
C 0.04682930806020819 1.5654625843864707 1.219634195787905
C 1.2832648219560279 1.4761968929498228 0.8615920367849979
C 1.859603080718719 0.21286475652767153 0.43172003015846344
C 3.130787602267747 0.1845337821239687 0.07719187719601892
C 3.7620842705245017 -1.037631017563082 -0.35888142727729233
C 5.052931081914518 -1.023196275571712 -0.7095624218118145
C 5.806006778920075 0.24209041757504668 -0.643607234156829
C 0.9704576638679978 -0.9343198608416005 0.42853817981120845
C -0.2909312643186567 -0.8272673013348804 0.7972771360642033
H -6.291976476642321 -0.7967016703610774 0.8498797055030813
H -7.5869826513243686 -0.00828089776039321 -0.12591296661494714
H -5.817895483359451 1.9224379634657764 -0.03550903723277252
H -3.4614460814636443 0.4853407268731888 -2.6246010634306396
H -1.7730966466609424 -0.8729282611913343 -0.8639994514870365
H -2.577453324107021 1.7363305742972988 0.4866210761347054
H -1.2726001300849161 0.3536418527335647 2.276510048269148
H -0.3303034023070205 2.5376098648167726 1.5323225944618304
H 1.9424299443042359 2.3535295820214617 0.8698044349898141
H 3.721686804879875 1.0893327421071168 0.10989867955277022
H 3.2608104112204606 -1.9803102160217432 -0.42438870129513817
H 5.5713350342519 -1.9106267221006674 -1.0427126271743143
H 6.874767393705391 0.08923406638211963 -0.877645937274694
H 5.705144914119262 0.7016069142171071 0.38293584293444294
H 5.3644560927677425 0.9833591716063788 -1.3600142264359993
H 1.3676295828763154 -1.9012725996023434 0.1116078698143634
H -0.9207388119897106 -1.7178542088548174 0.7794229773403413
