15

C -1.591515426392144 -0.6932604679803644 1.5878090016057078
C -0.7987228806917765 -0.17204993615662664 0.4590294445246553
C -1.4109541431498884 0.39326749012937756 -0.7612103096557893
C 0.5011793085635924 -0.2068922701090514 0.5307550978043215
C 1.3739376251322872 0.27800597087017614 -0.519759857905696
C 2.690173171180582 0.2269236241699607 -0.4129666943854612
H -2.588761913859819 -0.16699744100414982 1.6234039953955286
H -1.8237222019853507 -1.7645649276251896 1.4759820281850742
H -2.5187362771289306 0.21998095937911236 -0.7348630152014534
H -1.0495936718786674 -0.08163342603528707 -1.6890604594783563
H -1.205717941147203 1.4833093119457001 -0.8296970433105207
H 0.9564533066464848 -0.6150709560254867 1.411776310259357
H 0.963148089790417 0.698164762212994 -1.4268022116832837
H 3.3464986166424957 0.5860851543773349 -1.1911031757317172
H 3.1563343382768583 -0.1852678481474911 0.4767068895785117
