12

C -1.8086500835361163 1.1643247598755087 -0.8005281463731796
C -1.5204676054048198 0.30581934853002557 0.39537845515870956
C -0.10486086635739264 -0.09884907097737292 0.3221776486654288
C 1.0521600717409547 -0.4335038698061805 0.2777048599692198
C 2.4774572178980816 -0.8333788676530448 0.20005402494287086
H -2.5746141131484093 1.9382287269991854 -0.5544362927085279
H -2.067591847266018 0.566713570831301 -1.6730946470701917
H -1.7360240572467922 0.8457717286613223 1.3470482679561269
H -2.1702440925034177 -0.5940708343031905 0.3898372581189499
H 3.113970186869548 -0.23465930900633997 0.8518054181485365
H 2.74674281607898 -0.7260754401448201 -0.8861696262871965
H 2.592122372924433 -1.9003207427732216 0.4828586587391985
