22

C 4.163009605260434 -0.6192881346617158 0.5023139272189329
C 2.9841394315073857 -1.4084623538020888 -3.930582362381461e-05
C 1.8937926067115864 -0.8236271276944368 -0.4623399413922671
C 1.8058677495639421 0.6301235167207837 -0.49712130854457826
C 0.7225086932114105 1.212201731829839 0.2767332869704327
C -0.4922800415289448 0.8881511856211567 -0.13703534431920425
C -1.657099112117053 0.5032898421564437 -0.5747798068642084
C -2.144211984554555 -0.7511965556869517 0.02434414395916058
C -3.386976353127559 -0.3815475290648828 0.8052292676570336
C -4.291255586777254 0.4432464729360129 0.30018219322096257
H 4.554806495836397 0.06285641933759276 -0.3000830036208401
H 3.88164257268327 -0.05037124885951882 1.4182511135953724
H 3.071845244463243 -2.476130444704583 0.03532640401973857
H 1.0783794483098164 -1.4369881492684773 -0.8099312344173079
H 2.760347945743717 1.0703094328395513 -0.13498696447667263
H 1.6792315398712339 0.9294355650925182 -1.5682771422062618
H 0.7245574451695038 1.8483876710522529 1.113278133938479
H -2.109555367806116 1.1220218337974004 -1.296389879219686
H -2.377940987993979 -1.5343813257419046 -0.7246194519613057
H -3.549635630705609 -0.7855652005459959 1.7809956195545942
H -5.156560238105783 0.6820010140857619 0.879846016645849
H -4.154613475615201 0.8755333845611901 -0.6988492432805836
