26

C 1.6254564977155317 -1.5169303280722324 -1.1145206814016393
C 1.9698214310087803 -0.5315128159210292 -0.0799847807973457
C 3.454598225681806 -0.5690401173584267 0.37864938462303555
C 1.265923504992234 0.3437040102943603 0.49772890899920175
C -0.09735273377571706 0.8470760342421568 0.5023798903495759
C -1.130108632263216 0.5240755550981236 -0.17314338415509153
C -1.371686488306906 -0.4908557136250707 -1.2485130409473972
C -2.1829173846932313 -1.6582720705652074 -0.8092264954014664
C -2.278430552245226 1.380507355840057 0.26705386205267556
C -1.893604303819637 2.1977490881850823 1.199946988467799
C -0.49931822858101904 1.9717003497805603 1.4601192702457984
H 1.8375348905491546 -1.1397635196042348 -2.150225014661736
H 2.057366237557753 -2.503302392945825 -0.9319763680621165
H 3.8049307202874108 -1.5699073820219194 0.1599255318193028
H 3.3740587864758633 -0.47180510191500113 1.4793572019343408
H 3.9897760636559827 0.2603389112423366 -0.07945671148710212
H 1.884294904737027 0.9420628880809925 1.266718749822695
H -2.0979976946699406 0.03665029902454404 -2.0070922871182826
H -0.5375139543775066 -0.7475271571683125 -1.844487070742321
H -1.962368295829792 -2.503887955575432 -1.5129935878285419
H -3.281773733112122 -1.5026826261099602 -0.862622977218859
H -1.944528151971845 -2.0143414425462542 0.21140968096554885
H -3.298095856738673 1.3410227141630917 -0.12475764040445968
H -2.4941145193909735 2.9517471715389925 1.730834642771119
H -0.36064048882702765 1.5833467253390638 2.503779395035078
H 0.1666897559429448 2.839847520598918 1.2810965331413857
