12

C 1.4037295501178648 0.48507954404902265 1.3286102377328821
C 1.396390329770805 0.06501822348441172 -0.08781206423569048
C 0.25702984995086475 -0.15261835116903238 -0.6879378289658695
C -1.037875220283549 -0.0007361158893808276 -0.02300903789815883
C -2.129701091766962 -0.24056938247415016 -0.7036338179329645
H 2.2790436260655977 1.1488207927379495 1.4800898160274887
H 1.4252791656376547 -0.4238304284547431 1.9571270210411937
H 2.3265058583457643 -0.054021589731173 -0.5989629547200466
H 0.28598003192302107 -0.46316074787605477 -1.7390298338414116
H -1.0853675607104107 0.30617675452604887 1.0180608568796032
H -3.08218044726933 -0.12922564115184557 -0.21579455685278018
H -2.0388340917814647 -0.5409330580503429 -1.7277078372350896
