20

C -2.066508848303558 -0.9163445696312892 -0.834781542147895
C -1.520465012230499 -0.10417647145002384 0.30257807683596005
C -1.6503550468070378 1.3569040650132211 -0.020937059079258313
C -0.0839808961418578 -0.44187931753914145 0.6204283081027363
C 0.8303630368101127 -0.19880441379854386 -0.5538754992172829
C 2.208796450586983 -0.5633585693710932 -0.12713855351931785
C 3.203958394345147 0.3049485316262139 -0.12739789771082558
H -1.6680621512644278 -1.9504092922380356 -0.8749342905861556
H -3.1711426643448988 -1.0352832681977868 -0.6415634406662118
H -2.1172077364130795 -0.3041954178437489 1.2165654975150328
H -1.0426096883311493 1.6733901362466492 -0.8720471503033078
H -2.7391688109344727 1.5273208648759518 -0.26846654226302136
H -1.403481851096831 1.9216544874073749 0.8983911064182067
H 0.23767015270089611 0.2637949259377973 1.4254661661983798
H 0.03733035876241927 -1.4504603924513666 1.0167250248250812
H 0.8424416776312385 0.8969497643824657 -0.8003342591456002
H 0.5083924983728731 -0.7498972827203548 -1.463377040915026
H 2.3833345174098897 -1.5835129737447213 0.19230633228965685
H 3.029022112180469 1.3288263515717786 -0.44797333283032853
H 4.1816735070678 0.024532841924580266 0.18124916801373125
