20

C -4.208453802372934 -0.41291753583475493 0.06097537496354489
C -3.3261915841026455 -1.539603436745413 0.15028090183417703
C -2.3019134987642795 -1.3422366379184523 0.913038330329791
C -1.3399640642142292 -1.3912506106523406 1.7808401989556468
C -0.09824985698768654 -0.913869270119313 1.278330830847286
C -0.10120904420801283 -0.04062629969276706 0.12920027491262912
C 0.9161753242646786 0.8026927669064737 0.028990497842624228
C 2.017540338163956 1.501947599932001 -0.023947883071382892
C 3.1430762974982254 0.9189373673393555 -0.6817044327464178
C 4.270910248466651 1.6063629796763348 -0.7491133789051658
H -3.9456424271680492 0.3874032584256398 -0.6324413948118863
H -4.554313634861995 -0.034584509202033334 1.062233036671579
H -3.5527599020460143 -2.4165100252732357 -0.3838989664702401
H -1.4266471739596998 -1.7429053351120711 2.7727480969944964
H 0.7816508740623912 -1.567930252677359 1.383178670921055
H -0.7761041716774312 0.05992113260246863 -0.6741057682857919
H 1.944292639533089 2.444657461581689 0.4414613515713546
H 3.1114733633616156 -0.06458260365585207 -1.1286987060486244
H 4.32519658596726 2.5813189759401474 -0.3140984034371369
H 5.121133489030219 1.1637749748848236 -1.2469967426718471
