23

C 3.524121214108717 -0.7889592302050429 0.5965988945111466
C 2.657022821877556 0.4029766893072701 0.23354757110888139
C 1.332143069939426 -0.14377670909370224 -0.23989771247239136
C 0.22928806775637858 0.8868689685302925 -0.1803124074996964
C -1.0895345454305028 0.11135506402443786 -0.10807586497529732
C -1.087357650976054 -0.7561938989452025 1.1334655479928253
C -2.266986889527549 1.0455786876569038 0.001420212440157425
C -1.2305174707573447 -0.8091920877813151 -1.3035301154965555
H 3.748750734030791 -1.4259040796346798 -0.284294649315972
H 2.970265009464249 -1.4104221045823406 1.328984541267989
H 3.126683691831761 1.0304387690923784 -0.5306042824008348
H 2.5369523531146823 0.9855426001657713 1.1892703169649157
H 0.2930805060152511 1.4997281673119713 0.7266364384076753
H 0.2337648782601566 1.5090469185806017 -1.0958017860376026
H -0.62697980633735 -1.7295898515164616 0.8543005724872098
H -2.1282171808551946 -0.8795277533235392 1.5086000893229248
H -0.517424387065362 -0.22346660996229886 1.9230226717079297
H -2.580671962764745 1.1748541666101258 1.0673671957933262
H -3.1625844016918565 0.6538250553718544 -0.526281714349779
H -2.0326646146808933 2.0718551822763787 -0.3584463732338997
H -1.6994805659359786 -0.3045374839201554 -2.170300004727424
H -0.28133924151703305 -1.288032902439469 -1.5495545270526345
H -1.9483136288591694 -1.6124675575237943 -1.0008989284650387
