29

C 4.700018731948452 3.058739407541072 -0.21387833982934526
C 3.559957049796954 2.3957707354062108 -0.9127915665812977
C 3.289031033200162 1.1385344975317067 -0.5786459294620633
C 2.1476338354110194 0.42294629256558486 -1.254788082039005
C 1.4735989994577487 -0.4190827757966337 -0.2331907207100309
C 0.20375604425005409 -0.8002831195434202 -0.4389461444372727
C -0.5057569081530432 -1.641310712133407 0.5563512005420858
C -0.9420132471816633 -2.9162454862905123 -0.08875873940070977
C -0.6677847586955148 -3.1571769571632844 -1.3622070030889388
C -1.6986133866308277 -0.9198597191338465 1.0426985949112282
C -1.7064243495998366 0.3977859082155463 0.9664163427298867
C -2.831566731127742 1.1531748773276387 1.4206177535791074
C -3.9043905667961183 1.1204895671106005 0.659397123464637
C -4.919325102545607 1.0322690970879607 -0.1533175793240831
H 4.649308145549644 2.787084543181491 0.8785641174024831
H 4.529432655989681 4.151746990938401 -0.246234049802875
H 2.971164012898214 2.89422021378248 -1.6562378608414872
H 3.858588151721394 0.5948436841494995 0.16849088453902056
H 2.605317018729901 -0.21694926021173408 -2.052675924129614
H 1.9701596575083649 -0.7360789670297208 0.6711489712464552
H -0.33627374872126986 -0.5074557170154319 -1.328434881710719
H 0.19388712560938268 -1.910648443774181 1.370849166478416
H -1.4898238791872562 -3.6545172282389107 0.4906829092501225
H -0.9956979510425893 -4.082656539258803 -1.794426004799872
H -0.13037747749706316 -2.437776668298587 -1.9366858799553983
H -2.5293741928220546 -1.4935679381414306 1.4465496607456119
H -2.945170422858304 1.7471390902698634 2.2876062820122502
H -5.595164688847053 0.23025462356523319 0.04852357909740157
H -4.954095050364569 1.7686100033566157 -0.9220877672495078
