17

C 3.294107823797068 0.22858286718898643 -0.3349994186704659
C 2.442517674994149 -0.9455956233148068 -0.274927500198607
C 1.2526987924025188 -0.7685326293604025 0.26261806766280943
C 0.061459087928036865 -0.4725250634759292 0.7315129138421328
C -0.908889346593628 -0.028939179497938946 -0.24437679591520556
C -1.2454019463632398 1.4202486445039821 -0.21150163337211786
C -2.203857474730289 -0.8092015108358582 -0.04151679193489671
H 3.4415375148152587 0.6290370292404802 0.6916246041084942
H 3.051316299463052 0.9738368938059084 -1.085180303033864
H 2.6094665868882942 -1.9340992126413283 -0.5923745246397478
H -0.017888745410734538 -0.6026118368689513 1.7768969181319862
H -0.4058389296702242 2.107545533667936 -0.2885427794585912
H -1.9018068111000186 1.619333666189094 -1.109341649442903
H -1.9182816740546433 1.6556349190834234 0.6623931988029633
H -2.072323383090654 -1.5899503580934313 0.751889061899204
H -3.0241827350695507 -0.16623371934900888 0.28871854404050107
H -2.4546327342052012 -1.3165304202422186 -0.9828919118217019
