20

C -3.4560847939086057 1.5660927094660042 -0.7819529215131132
C -3.1178631849369625 0.4200483777599325 0.1327132846540395
C -2.2015761824873743 -0.5113578266755138 -0.5414408559797595
C -0.9645727465861219 -0.7518071856174873 -0.179537472997962
C -0.16892057765927446 -1.6956007600990737 -0.9337947970387233
C 1.080904541709888 -1.9208837657712137 -0.5460806455195261
C 1.6415468002425373 -1.2351694128105175 0.6118961434206281
C 2.3522078873489503 -0.14976525976830987 0.4334707391783081
C 3.299551509981942 0.7200597063049055 0.25883294167279125
C 4.2096714925576295 1.5725319361866144 -0.16429125469953032
H -4.450926959835167 1.9807689576178555 -0.618972911474299
H -2.6514465449604616 2.3003161003944874 -0.8974619333014445
H -2.69084131959597 0.7432474680333302 1.0998921677634106
H -4.081868432290215 -0.13943958149964003 0.3032787396582277
H -0.5520253915279805 -0.2515485386270713 0.6671820212152055
H -0.5686875585519375 -2.2223768503886525 -1.8068030804394761
H 1.6659045147678209 -2.619005503319833 -1.1058934717323168
H 1.4453799450664866 -1.6565972978900263 1.588753239779658
H 3.950270560218274 2.520449270530047 -0.5815285265538783
H 5.259376440446443 1.3300374561741706 -0.0987488131288525
