18

C -4.957118244543434 -0.3141044356798238 0.15274326970591298
C -3.872743178841458 0.568865792639144 -0.3048352614080211
C -2.641529735031312 0.18622499050464464 -0.09198665499008055
C -1.3789713064889875 0.01858722475677632 0.18098985693882402
C -0.137321300184308 0.09316772231959207 0.5753124589933668
C 0.8513615590289724 0.524419507453687 -0.3707249225475863
C 1.9985374572647807 -0.08720504548913256 -0.32621700541970805
C 3.148901633982851 -0.6854779190805738 -0.13667139958160168
C 4.052292984281428 -0.06350143063966039 0.8239355174063424
H -4.916488602914469 -1.3256066501918684 -0.26852688410515163
H -5.163814784209148 -0.2613685344719461 1.2262430526460149
H -4.128415461627848 1.4968339011911815 -0.7976736081986179
H 0.10254058808656089 -0.1742594317910082 1.6064068319701146
H 0.7923613634854145 1.2750139497610922 -1.1095383615895438
H 3.272778316607481 -1.5578457357455708 -0.7152218063177656
H 4.824485195303917 -0.8159384660756028 1.1384858190566889
H 4.616024006047422 0.7447757769928316 0.31272013793004905
H 3.537119509752352 0.37741878354618036 1.6988673000548569
