19

C -0.5001309742617862 -2.5233628807204664 -0.43876249774790765
C -0.8202912403579202 -1.2293152437804469 0.2081100318762588
C -0.1092584323120158 -0.850307181105727 1.4160010518961008
C 1.1498769654450325 -0.4621700246239593 1.374018564058669
C 2.195702528758524 0.29929820345768066 1.2281520616083066
C 3.3458991227306223 0.8090508118190689 0.8985278826947806
C 4.376354312480004 1.217648544411744 0.19417287051251828
C -1.7266898600988834 -0.40529767946475476 -0.2689290779027607
C -1.9819229493823716 0.8443317204643946 0.4239761789327017
C -2.882978363179203 1.6819242009697735 -0.03521080294545459
H -1.2086168468015543 -3.298403397470666 -0.10480872352962546
H -0.5688679747323215 -2.418510618085952 -1.5402872194901185
H -0.6542769581352775 -0.8997211971919157 2.348075153946328
H 4.322117052699949 2.0174661033132124 -0.525349939010443
H 5.309328984294857 0.701350660170245 0.37285527191165835
H -2.2948195213786384 -0.6413421019806683 -1.1797060677613038
H -1.4377407425928113 1.1180296601779838 1.3349831609454281
H -3.4431436161992113 1.4286316003509076 -0.9498780861097198
H -3.070541486977065 2.6106988192895586 0.4825510733229387
