24

C -1.501404483699247 -1.1189107456846845 1.6788836274395273
C -1.7768202849010695 -1.2203742052402993 0.2652490332231975
C -1.2177117282693748 -0.6404385183804712 -0.7175317229245557
C -1.7766125741338172 -0.9890663622928524 -2.1149281150010766
C -0.12512448618367583 0.30647893567962875 -0.7616850558415017
C 0.6391894184321458 0.877420389264815 0.12540115249697797
C 0.594347847369296 0.698203320040383 1.5391310543795809
C 1.5472877733299364 -0.07630069140295863 1.983866236441193
C 2.595870704939404 -0.4652869396040701 2.6491034763270656
C 1.578960508771525 1.75674479723613 -0.5939742517016867
C 1.4031108315274543 1.7304299302123602 -1.8618633508365223
C 0.3126950460918947 0.8204157223848009 -2.1339823995122122
H -1.4170495604152837 -2.0994803093840693 2.1867319134528995
H -2.0558115627026874 -0.3621181191715481 2.2345690460032825
H -2.641782168189957 -1.9481111400906994 0.03970293540402381
H -1.8978273072985967 -0.049298971992695576 -2.6663483039841505
H -1.0888075786057547 -1.6950705862366817 -2.6141957852036213
H -2.7548783185269867 -1.4498642931025125 -1.9727622759384393
H -0.14013754422333308 1.195473132749578 2.1150313762802706
H 3.429330699540386 0.12172319689718326 2.9393317438198348
H 2.5553097089403414 -1.4689852806106454 2.894400116982571
H 2.329495966436866 2.3501908579238093 -0.06434860512294126
H 1.9564763499456825 2.28195120592787 -2.6354505796606635
H -0.5481072581752198 1.4442746748777104 -2.514331266523247
