16

C 3.3558246007621606 0.8704082374533884 -0.7038254165320188
C 2.209785208253401 1.844753423659461 -0.5976043127950263
C 0.9722477914948634 1.0939279730456946 -0.4919567578237453
C -0.05764971184741801 0.4613170213687933 -0.4238578480781858
C -1.2753678798584307 -0.2897516328394707 -0.36791263099616894
C -1.6153504102164535 -1.0379679460971283 0.6678824476437246
C -2.869609773366612 -1.7898524527683346 0.6842638905943663
H 4.259610517570006 1.2197403450812352 -0.16726048053372636
H 3.0111315050798195 -0.11688573668664924 -0.3918225078346096
H 2.3532682333494925 2.480318522323969 0.28975837533731685
H 2.1834983137496398 2.5280202794512525 -1.4827831594577978
H -1.9254795798352067 -0.2153000774179875 -1.238538910358216
H -0.9426399738793694 -1.0821768838119943 1.506994684035867
H -3.7554172199372418 -1.1820983855500449 0.3759258868030087
H -3.09839815267264 -2.1520867784107853 1.7243318244436316
H -2.8054534688203656 -2.6323659090766274 -0.031353674163040995
