26

C 1.1604099530047929 -1.7310416442377974 2.325058937243153
C 1.647730807513427 -1.2917759154412665 0.9627610981380582
C 0.7549463459494219 -1.280647974169621 -0.12453962797225959
C 0.47836169930557765 -0.09521845783116141 -0.5932073551796945
C -0.15848220589863415 1.0227169042111641 -0.8299049435388476
C -1.331834034606827 1.5168413727001033 -0.1123069165734533
C -2.6162069796104577 1.0539988336736061 -0.7123757282991605
C -3.720373515875298 1.2785712483983098 -0.043852249420613845
C -5.079641846677813 0.9077483333262732 -0.4524694169124895
C 2.932936160879067 -0.9448979550860578 0.934399773766143
C 3.4755318876116292 -0.5115281551935044 -0.3377209793634795
C 4.7450093396245006 -0.1624231432767649 -0.3940435945814617
H 1.6585694170533345 -2.7142318342034297 2.497676721549597
H 0.06069506672179377 -1.7972239445340277 2.3439791183239587
H 0.33108892225934666 -2.1543409659873998 -0.536848675956772
H 0.2576772890878706 1.5563161043470815 -1.605148385296905
H -1.3185205645941618 2.638451568026689 -0.15518198049615625
H -1.2868152220362499 1.228018438803284 0.9751869375646666
H -2.5692280785705175 0.5573129878619143 -1.6676627403939226
H -5.482203454304434 0.028533584371548754 0.11504089152271124
H -5.04769125894633 0.6280117790505155 -1.536825722709975
H -5.7555174396191715 1.7818934835165812 -0.3861174492864373
H 3.5356213433449586 -0.990733505106961 1.836788944922292
H 2.834844754843893 -0.4844482721937295 -1.2021869991117493
H 5.132531013117338 0.16062774461750987 -1.3620496183377857
H 5.360560600424669 -0.20053061564280944 0.4894024656884479
