20

C 4.390911589726646 0.5506773293644143 0.34634441925521814
C 3.4046925055701696 -0.02397436917535281 -0.560958840204527
C 2.3355260869547942 -0.5360959092710664 -0.0014647669698230007
C 1.2604121577161078 -0.9240742389740646 0.6432285722696555
C 0.250690442956327 0.06630064977721581 0.844060792257586
C -0.8640961010601125 0.1143387918308032 0.14955326435108376
C -1.3453677448762993 -0.7455796347640227 -0.9221401701480291
C -2.6575491938702336 -0.6556228349094385 -1.0309963547719139
C -3.1531174162615994 0.29230868103525326 -0.013949560465212897
C -1.9450503747960997 1.1272952623893728 0.3231089160761311
H 4.723848205972446 -0.27152371441724094 1.0399728017370886
H 4.034479474223114 1.432889009992778 0.8960085659594652
H 3.4067401053023305 -0.09678557838027121 -1.6086968920515505
H 1.2908256276008727 -1.9369292589588627 0.9323526316977653
H -0.6613974073029442 -1.3638748418491753 -1.5252098551551092
H -3.239279172295827 -1.2166672459894414 -1.7750111560984578
H -3.9724411033655245 0.9334360635707174 -0.39742718317185927
H -3.4515270534439155 -0.22760082852143346 0.9270519821595528
H -1.8377905602007492 1.948597398670819 -0.4187467953341577
H -1.9705100685495047 1.532885268579048 1.3449227066133382
