47

C -4.203632890837405 3.330852198173773 1.3007275851375821
C -2.851668769587953 2.851245228794179 1.0985886565446632
C -2.651774862591582 2.037539233108148 0.0831708185886256
C -2.5854208808616352 1.1852544214010619 -0.8963994653666977
C -2.8451679130473666 -0.21172324845975551 -0.5164274340015302
C -4.217798211050111 -0.6724107899377793 -0.7768199986995133
C -1.9008944233336345 -0.9720947366654802 0.07299298388333887
C -2.1105002494337968 -2.348838142917382 0.458924356115516
C -3.11136433627923 -3.1474644213157323 -0.3783163698359205
C -0.5866268422882517 -0.33307766121112414 0.13200498568329533
C -0.2983696549283424 0.6915052540847811 -0.9655164265915988
C 0.3973905398329837 -0.49688284183220655 0.9783383901785432
C 0.3342056934759012 -1.3903464559079428 2.084126106041475
C 1.2408677053852515 -1.7121083004513915 2.9603742116488787
C 1.6139836005088801 0.2587878426247555 0.6974643071268977
C 2.5973850081416843 0.6087989331405684 1.4684028708072927
C 3.7337257384239844 1.405971214091355 0.8197820820829589
C 3.2290198879260763 2.1332933190395043 -0.36453585606464933
C 3.8244868952818374 1.6668847299366008 -1.4480814466189418
C 4.761752485391067 0.6049451126068838 -1.0774228968264867
C 5.625792805940745 -0.17435470405422507 -2.000313230642361
C 4.710125846570873 0.45291449969743663 0.23548735474522403
H -4.976596769675981 2.586176931443872 1.4522527975103336
H -4.313879651514241 4.266390533844209 1.8434028972098213
H -1.9829600712894826 3.0543074531540992 1.6492827621770647
H -2.3679875443534804 1.5786332677745183 -1.8337017174667198
H -4.364889918245925 -1.3618620749315908 -1.5919184155184205
H -4.707837607336978 -0.943597862626685 0.199123483783542
H -4.87376556740816 0.22991605431035747 -1.083141509959958
H -1.1712658330466121 -2.9245278625756495 0.38331346022409934
H -2.5020544192186476 -2.475138418282689 1.5037684495287353
H -2.8959592238789176 -3.0881245137864526 -1.452078513234892
H -2.808738999693539 -4.240176894451138 -0.13661313926226373
H -4.132127668278559 -3.107002720190652 -0.04525368664668354
H 0.11695537392553934 1.5628944300244274 -0.4741030489315588
H 0.34610198446655516 0.22345641810143044 -1.6969882791149253
H -0.6746491045069138 -1.846599594632071 2.2614053592575893
H 0.9400830531852913 -2.4446563706790245 3.7465519451486227
H 2.2255705662182605 -1.400427363329915 3.002663748691234
H 1.7248376562089593 0.5569416013072871 -0.3827407731081711
H 2.697946227797618 0.4536001827531955 2.518092391123159
H 2.492764397706384 2.91909475106862 -0.3492961718013579
H 3.6818644416794886 1.9830198022708196 -2.483354547805402
H 5.8943106176500395 0.48249447233665216 -2.874587330208756
H 5.097572790640493 -1.0745629049839636 -2.357628860566048
H 6.525223405078333 -0.4701014190377903 -1.434672710969847
H 5.3239646912486975 -0.28883858282966973 0.7711483683007446
