47

C -1.156657225354049 -1.8584001411932192 -2.981478409003719
C -0.9158815489349812 -1.5905677338286033 -1.5583719734259058
C 0.38857814648367334 -1.058805342990854 -1.1567001849257594
C 1.4168207266735429 -2.044959262188939 -0.8288362117490271
C 1.1704184217690283 -3.3223844289365263 -0.8902466425351605
C 0.5869125343592421 0.23419025556980924 -1.1101227668122489
C 1.8578832719856337 0.7958761886217076 -0.718744092143569
C 2.0339296258793755 2.1280837061690714 -0.6801136920511027
C 1.041199847000829 3.1619238667067653 -1.0046316653996057
C 1.6149408063772224 4.347502438209168 -0.8404010119664678
C 2.9741440708693783 4.141531175475008 -0.4118364359041241
C 4.027628723772697 5.151786624502416 -0.09493200465976386
C 3.2311662226255344 2.8322317982105765 -0.3140811046025027
C -1.8375496686590218 -1.820362888467352 -0.6614828362699082
C -3.1513272848839766 -2.362313030570964 -1.0875848803520822
C -4.270649090578735 -1.4133925802740301 -0.710438099023767
C -1.6105890057252965 -1.5601596114431084 0.7465415614063088
C -1.9332031267887275 -0.2203656961950831 1.2916109888939706
C -1.1284282856720385 -2.4711598176631546 1.555302754565648
C -0.867428452608061 -2.321524587517768 2.952244492168568
C -0.1945842322658827 -1.265634675892341 3.3262874209075144
C 0.4942751703001805 -0.18300230365102582 3.605214744373308
H -0.25501699482886087 -1.811599316299628 -3.604877998364863
H -1.871245590902444 -1.0746785018459284 -3.3485234679634943
H 2.4083401912294042 -1.7492368064833181 -0.5272460361010965
H 0.19846600350232876 -3.663110831724469 -1.185854711547978
H 1.9075402934288535 -4.074674324603526 -0.6549277070836111
H -0.2188455762825695 0.900953077749905 -1.3703673811163926
H 2.7143225108125484 0.20753755151678838 -0.44232219950037327
H 0.021751457507473183 2.945729698250127 -1.3210814792190992
H 1.1627930804142135 5.320063265425615 -0.9949454830081771
H 4.383559027161211 5.059497223113398 0.9457732653516217
H 4.920055286678336 4.94441771286497 -0.7431303185498191
H 3.6953794629524306 6.179408314467136 -0.3576232331544119
H 4.156430028809091 2.3583364635285653 -0.01725339309002956
H -3.1940562685119045 -2.4431913375938885 -2.2087889403574614
H -3.3155105148104944 -3.376042932597942 -0.707742649121912
H -4.405086029001447 -1.3304606922116418 0.38194764007315957
H -4.112037877534665 -0.4088057846390278 -1.149191630555328
H -5.249900186221428 -1.767299459767962 -1.1157745933082444
H -2.4006167697482512 -0.25417623279414014 2.2863595930400025
H -2.6812492483016586 0.3091065561231102 0.6327760865211212
H -1.0459078173724172 0.4720834768447838 1.2567233383985348
H -0.8956125925593005 -3.4619225513915453 1.1310621870175137
H -1.1445653800878357 -2.9579446918138474 3.7565340902141324
H -0.09863618069242804 0.6784087085396944 3.804278086708051
H 1.5480500377662845 -0.302492537280373 3.5957766816542924
