26

C -2.670988452353583 -0.01334346537096666 -0.5773387521362844
C -1.3056939840097384 -0.07896850258727085 -1.2371856107649384
C -1.0387604465128022 0.9485362489819148 -2.2292720813571374
C -1.5520795061610881 2.1276640359117476 -2.017860265747093
C -2.101219241754186 3.282802313840941 -1.7299859392614292
C -0.9444478423674829 -1.487347152314991 -1.7371849838074678
C -0.2888440222688177 -0.8334997453999663 -0.5477669913882102
C 0.6121160960155334 -0.9780406582758755 0.4054550030533376
C 1.4890613899724963 -2.1411284616903514 0.6652456861238778
C 2.2426450867760153 -1.8800787348311936 1.7121716729007415
C 1.9117356750140602 -0.5543939610135988 2.1936042459177156
C 2.543004939005054 0.12417390411777521 3.3710720585339553
C 0.9627753502721873 -0.00997782825135414 1.445802195201001
H -3.4395803558154348 0.4153242985643318 -1.2212087112656502
H -2.6335157501123967 0.4076224365428294 0.4360946174331445
H -0.46315918971289366 0.8735740479138374 -3.1369603011704164
H -1.496938729653926 3.933189300927586 -1.1510241545209654
H -3.0835275648153035 3.4155252937125824 -2.1152957619545094
H -1.6551817406414397 -2.299545387924239 -1.5627303387828113
H -0.2631597667906271 -1.5852110517435096 -2.585233680965011
H 1.465132985871077 -3.0269337991555636 0.058599251822254145
H 2.974420583313185 -2.5384113526677647 2.1329515776902177
H 2.0328854601771127 1.0741209124779878 3.606305080135571
H 3.5998629794794432 0.3917024562244359 3.1086994140189304
H 2.603164350026799 -0.5366979560332066 4.251474721247523
H 0.5002916978778468 0.9693428123673025 1.5479025133354738
