19

C -1.8817079566119206 0.8856010669010975 1.1736304558692112
C -1.4761970525105694 -0.27253499680402715 0.3119432661853127
C -2.2305337741948597 -0.27216787950992105 -1.009533360719109
C 0.0014877611971573566 -0.16158125125684542 -0.04606631395528753
C 0.8486040022348207 -0.1654184849385228 1.1767158178017199
C 2.1627223669979867 -0.16388426911497808 1.0002543132917372
C 2.7853431569303924 -0.15857518926284928 -0.35053247974257684
H -1.0711995858522614 1.2408408375053468 1.8243792236753473
H -2.3605882218097998 1.7042647161264204 0.5813436154909337
H -1.6721338459088328 -1.2084784100977075 0.8688511972314493
H -1.6370068289563398 0.2956347460942248 -1.7680019691128048
H -2.373677208854093 -1.2832344546854142 -1.410673652408145
H -3.164738570166826 0.2950940132163165 -0.8522070294881358
H 0.3050111833895559 -0.9722464037628661 -0.731952714156746
H 0.1875980071402407 0.8087522512698313 -0.5524696832618524
H 2.781785410803741 -0.16656584059043572 1.8697924601728049
H 2.140012543329133 0.41352509407757343 -1.0526711687794184
H 3.762433026592372 0.3620226570582565 -0.2603691714421558
H 2.8927855862506235 -1.1810482022256301 -0.7724328066521559
