20

C -0.18745149915056333 -1.12496883823163 -1.5309172978295407
C -0.5859030775774217 -0.8702533309933657 -0.09450273208749821
C 0.3859864958541168 0.12425371181350724 0.49896813885204194
C 1.7134584128359023 -0.48605935411226586 0.4126095336820579
C 2.724232264118966 0.3405048147228708 0.2551306444016139
C 3.660420397447722 1.2282964662056237 0.08856600218199437
C -2.0048873310315827 -0.408054267695704 -0.04949065893834906
C -2.5297167701943764 -0.113656503436884 1.374166069352355
C -2.384593903926143 0.9762560117783433 0.27458573036522715
H -0.5525007919876553 -2.109203607321885 -1.8401981409824306
H -0.49493617221623004 -0.32615664103306086 -2.2139153626830654
H -0.5082501852581565 -1.8435855694169219 0.4330348813694763
H 0.32935170169531597 1.0608015288043933 -0.12780221419012422
H 1.9939994572757844 -1.5020811739897952 0.45735313726878163
H 3.8941096486867184 1.4689310008472076 -0.9223199561645109
H 4.083093039193376 1.611512604998443 0.9947268374902024
H -2.711893251856374 -1.0206416791827497 -0.6187355342402633
H -1.8016397238465798 -0.09414087086444259 2.1946969238991025
H -3.367368337485074 1.3176901413221411 -0.0834665809666015
H -1.6555103725772857 1.7705555557860653 0.49751057921947417
