22

C -2.505582565226941 2.596732175544575 0.885376850534116
C -1.7095153677589254 1.569439009486446 0.1696105390313675
C -1.934027883819913 0.2790438244082352 0.3199523011983736
C -1.2301820179138394 -0.7739170668239487 -0.3176181600760977
C -1.7282326172485405 -2.043634556542125 -0.8105302608336352
C 0.04655535754465207 -0.5703049519600738 -0.4802394676494073
C 1.358480651254225 -0.42645002012901106 -0.5433025455100686
C 2.092721666090842 -0.9217060049110442 0.6017723628290974
C 3.5291392528530094 -0.5682088500683344 0.44688250699603843
C 3.949515341913319 0.6634634219462842 0.21352870690263537
H -3.393380323465866 2.131272033861858 1.328407869912917
H -2.7814699426076688 3.4243224915865995 0.20059208654176233
H -0.9239477212096258 1.9041706171541173 -0.49272495629283547
H -2.7472703016477777 -0.0035454259493177373 1.0077421378168248
H -2.7766656996414016 -1.9347654135254317 -1.2011108014995797
H -1.1382415216681043 -2.460810399616022 -1.630402822128938
H -1.8054531472089894 -2.746860102908479 0.0655589935450945
H 1.663766560799323 0.03413815316122229 -1.4338343325307412
H 2.0186094327868087 -2.009487597111497 0.7815666816007151
H 1.759285353941533 -0.42555116531809023 1.5605664535800834
H 3.239031476846357 1.4586871525653127 0.12847247398653835
H 5.016864015387415 0.823972675149339 0.1154512761785422
