39

C -1.8897611528587088 2.2791141876595913 0.9745575261001577
C -2.2738753289925278 1.7434315161830152 -0.37305312129596796
C -3.039949250443864 2.5923292858422635 -1.2367093742863333
C -4.004272859978922 3.2815368199963277 -0.6672381573841055
C -4.945014344625077 3.93292803247791 -0.017331514088348363
C -1.8839665571673765 0.5211700951326455 -0.685269106007202
C -1.0922690616587858 -0.3159605293367869 0.24546304833465282
C 0.33459581813714195 0.028704113928490475 0.16429789328722927
C 1.17702444753033 -0.4266621654333456 1.069136256727058
C 2.6381534296142064 -0.11380092603590401 1.0439751936502588
C 3.3500157112851894 -0.9910195211828562 0.0609048477405306
C 4.230725209295127 -1.8802116572350567 0.4885543431731138
C 2.896047246201195 1.3077070211637547 0.8325430063355835
C 4.139037011711189 1.6494133330966367 0.5984227570662188
C 5.411803524206839 1.897105050825682 0.36894217177025745
C -1.2647558897056375 -1.7514186062848185 -0.12284041268992588
C -0.5431693573893153 -2.3360028132889123 -1.2779273304949803
C -2.0695451764889206 -2.5320075909828943 0.579361213060763
C -2.2630745246618016 -3.948984263956716 0.24532613884015533
H -2.292402665772694 1.6710465144807136 1.7935537454403174
H -0.7823730433726458 2.3924147736829466 1.0431576741820228
H -2.952520066353576 2.7564055695053975 -2.2776501285717528
H -4.644389486390897 4.87284635524229 0.3653697472075181
H -5.873507273481082 3.4271367049854624 0.03436753242513539
H -2.1479745662660363 0.1135857604275694 -1.6490076967494458
H 0.7319137524584669 0.6539026482689925 -0.6236083817970566
H 0.8393051664078341 -1.0579017364933752 1.883202075437721
H 3.1381599450068878 -0.8896375639723451 -0.9851555988646301
H 4.461126458024444 -2.000939766584936 1.5384659371977267
H 4.746708644527627 -2.515159817689323 -0.2164693347722213
H 2.2183786785621518 2.1178836222310573 0.840038181279749
H 5.687268286982442 1.865252617197829 -0.6498700910025369
H 5.980926060136973 2.0929106451348565 1.240503856593154
H -0.09692219888953271 -3.3177870732484807 -1.0139112299011495
H -1.1974491243269263 -2.46792190054648 -2.1511962368605753
H 0.28253226155048033 -1.663534822558115 -1.585900042508389
H -1.3214812003975231 -4.535975916258376 0.26759708838696145
H -3.026927601244868 -4.397695385110424 0.9085566359756652
H -2.6581209211717614 -4.054202611263194 -0.8023595005613708
