13

C 2.237198195265031 0.02669150235125769 -0.015417254532252957
C 0.7468878079782066 0.25602878869391893 -0.0610369676521362
C 0.03479483160720624 -0.44651395181682524 1.033210720311139
C -1.2710424354838419 -0.6013539180269571 0.9478945593561631
C -2.022815209893631 -0.08551125253463804 -0.21779652800896965
H 2.833144884540095 0.9221954015928747 -0.1880346738592101
H 2.5659356146691947 -0.623343880410507 0.7970474271537219
H 0.5783217969361539 1.3604571927547164 0.07956102362835807
H 0.4088814295974983 -0.0743641887200591 -1.075309348733212
H 0.5415276370961517 -0.8436182561912913 1.9101061635217478
H -1.5990092076649098 -0.4156647859625962 -1.1911019930988958
H -1.9897507166486315 1.0143672557712677 -0.1939726622718243
H -3.064074627998525 -0.48936990750115616 -0.13083692970118935
