15

C 1.7115687172739555 1.086504424154361 -0.23166740252776324
C 1.4455504497468514 0.08355349449078844 0.8234295285367842
C 0.33910872149531146 -0.5931754728439719 0.9545847589607251
C -0.8092779603596942 -0.46149180473619394 0.07467018615690736
C -1.8810533868647952 -1.1959771617440316 0.2978485372743592
C -0.7694296104631285 0.4896447123026836 -1.0589499062430099
H 2.3814049375224284 0.7227000742950089 -1.0277472520726938
H 2.0088479212380816 2.0555735006628395 0.20180538686628752
H 2.2439032828210186 -0.0953109506363079 1.5415567167767117
H 0.2858687969701716 -1.3100219237252042 1.7944453168464105
H -1.8759301109656112 -1.8755646502130852 1.128887122130544
H -2.744175674809052 -1.1222172131522274 -0.33279842737745624
H -1.7246124151910571 0.4653351959464046 -1.6302249533364996
H -0.6344993502701226 1.5353923642532885 -0.7618796609134498
H 0.022725681855671257 0.21505541094569952 -1.7739599510778972
