12

C 2.0700403061436536 -0.05392237538568913 0.03960927895582321
C 0.5879546587394442 -0.0561677912339197 -0.016025348511817326
C -0.11054877666605542 -1.1733314783014035 -0.025934684103973375
C -1.5366720691029208 -0.8159511952658595 -0.08472279099229117
C -1.5497720109477129 0.6552914722423953 -0.1067456498871306
C -0.32079281560163647 1.0611295942572672 -0.06651188946930842
H 2.5025683361684017 0.888823769789817 0.36808352978176495
H 2.550471160768005 -0.5393652137391559 -0.8063134216281809
H 0.2769188455188986 -2.1999413561452306 0.003596586915358344
H -1.9646683526506583 -1.107542353721691 0.9158449829327313
H -2.4806149328603326 1.2264401276516845 -0.15006115851061025
H -0.02488434950908843 2.1145367998517703 -0.07081943548236447
