29

C 5.156236600654237 1.9092129107227784 -0.9759992448100092
C 4.365516953421018 0.7217876076544977 -1.243783778379533
C 3.5635154325637055 0.33320612410112865 -0.2797529085002598
C 2.818573891485227 0.04807531242904893 0.751575312640417
C 3.4285666484242228 -0.8319028942843343 1.7298132189025304
C 1.5282228006608045 0.6534397251867587 0.7438084130186546
C 0.47830985390064873 -0.0776059476174698 0.3835345608465201
C -0.9019606611798578 0.4961794572485695 0.3538923089175083
C -1.6050463721502688 -0.08598395264286607 -0.8301464811457466
C -3.0162639018501265 0.4065800572680752 -0.9861898376075032
C -3.881167120208175 0.10654839256698505 0.1473607469801676
C -5.144045114295061 0.4422201218162998 0.02173294810107741
C -6.3903334152190485 0.808877059661638 -0.1846682517158349
H 5.952745539239268 1.738302162335824 -0.23951133591704998
H 4.493575137034066 2.7577343422206146 -0.7131501533587286
H 4.311290234650966 0.09682947211178485 -2.08515261813417
H 3.486972262514737 -1.8564447543634932 1.3070695099716108
H 4.421587693921807 -0.5172327366612072 2.0911455554576253
H 2.7431838571966725 -0.9134900121889676 2.6123438402833856
H 1.3464615627358936 1.6940714060245048 1.0190777526993928
H 0.5721136880894171 -1.1121188678106797 0.09762411506231694
H -1.365886826523712 0.2613962592849086 1.3140633027340682
H -1.6250308893089074 -1.2072537795609533 -0.8097420682092861
H -1.0411996189296204 0.1889598287597118 -1.7429629560869975
H -3.4400249985297067 -0.06108223089588911 -1.8994660477574596
H -3.004884585472393 1.5207940198819878 -1.1471038722176539
H -3.64312706905945 -0.3483289597177932 1.072294409216708
H -6.995729919864498 0.06650044839909494 -0.6292852848977902
H -6.612171663901562 1.7934330950475892 0.12157884390509317
