41

C -1.2284062139154284 2.726338056936504 0.7331730786584267
C -2.0077809178506283 1.454276162795557 0.9958604107742589
C -2.2207927532275584 0.7137521509078526 -0.2679296247428417
C -3.001136346252986 -0.5752151125777262 -0.08752609646972298
C -2.5967610536156034 -1.356615328004981 -1.2953906255156409
C -3.304416184894142 -2.5335185080737137 -1.8215177228375035
C -4.384305455083776 -2.940608068823033 -1.183331966140572
C -1.5064626656932765 -0.8548547348525096 -1.8455638470139546
C -1.0654798604994737 0.31078035635043544 -1.068145374940681
C 0.2254322589426156 0.1093086673682586 -0.40286526918450316
C 1.2301840082228706 0.9113608878904611 -0.6555105444385634
C 1.0476572864399076 2.0225743213240897 -1.6233548944571368
C 2.537753574579463 0.7697316517602761 -0.015310942096758548
C 2.752364110967597 -0.17379575657931706 0.8436593526309443
C 4.045016562022644 -0.32820628261454965 1.4871623362763822
C 5.085852969699717 0.05822444406165152 0.8095345667485352
C 6.07673939469115 0.4769839801094526 0.04664425091789977
C 1.6984591612034647 -1.1315005542844432 1.218175136996474
C 0.40006728735856645 -1.020785653847004 0.5237298181741562
H -1.379282652507306 3.489104488570466 1.5072210014521197
H -1.429576245219542 3.0894859147702762 -0.289429331479022
H -1.6111015168782195 0.8874969614928058 1.8469685223013081
H -3.0269676480056993 1.8191784468259462 1.3530373585436937
H -2.857299057334876 1.3956923125699088 -0.9239892031845135
H -4.102707237768974 -0.38080638974446734 -0.1088201937827997
H -2.732648999841706 -1.051381419829897 0.8513729831147263
H -2.968670693169516 -3.0557948951913323 -2.6931534087699482
H -4.774801464353425 -2.4628259588375863 -0.3040888751409416
H -4.943904736568531 -3.8109126636403796 -1.5367545933836804
H -1.0318116282826941 -1.2692336968296685 -2.7423936254073533
H 1.2308809111706784 2.9734042953506377 -1.0741753693250742
H 0.05584543731611807 1.995703252599904 -2.0995842575142714
H 1.8244083737811108 1.9925491935892101 -2.427107022508032
H 3.369560108946526 1.451401149937281 -0.24028434432657536
H 4.238608525504878 -0.7180960853373989 2.4422152055512196
H 6.321309882278577 1.4982179806842655 0.17168869019663868
H 6.486312945840409 -0.2673661636738667 -0.5827624430248319
H 2.136505140211617 -2.1557559857844573 0.9896922315103598
H 1.5941381776266956 -1.0331274340788845 2.339361821857994
H -0.39729819246112064 -1.0473694298607488 1.305543786299044
H 0.21451540661952728 -1.9777945534292862 -0.05723189312140966
