18

C -3.73735576192948 0.5878878110246251 0.17575397936227766
C -2.5016500242291566 -0.01144051625301763 -0.34851176717392757
C -1.415281677578558 -0.24742834461622432 0.3579310757596845
C -0.19621381924962317 -0.858527749904318 -0.23887508995118045
C 0.9806626716921052 0.037029382555156226 -0.11733566868663031
C 2.072467437204272 -0.3347349836583295 0.5417167719008222
C 3.2389817094314597 0.5503120851595777 0.6633665637458726
H -4.407003911768487 -0.10929180629063137 0.6918249215494571
H -3.595159282202305 1.5502876644698353 0.689442764443355
H -2.480128138888691 -0.28270112457043994 -1.4043154233653212
H -1.3761164079809023 -0.0012696181648752024 1.4053295556538636
H 0.020359906651609548 -1.8301339997671695 0.25300211582523374
H -0.3832688057996632 -1.0531562320084042 -1.3204892630365406
H 0.9526163977324901 1.0083110963814697 -0.5711619269919905
H 2.1129027293613656 -1.321892885646567 1.0083415064359589
H 2.98341760302999 1.6065874036963863 0.4578241878088777
H 4.043332534646143 0.2219106437158183 -0.042805452732597254
H 3.687436839877388 0.48825117387709155 1.6748395979352817
