48

C 6.091098082759789 2.6421004921375872 1.2261824040740812
C 6.875106337224569 1.4086818550950144 1.4138571596795915
C 6.81761195760424 0.43223696513036586 0.538042157914898
C 5.951292647539729 0.571157746468199 -0.6583057320935704
C 4.928483948236184 -0.530480402128966 -0.6516427003029424
C 4.864221508676621 -1.391705940025749 -1.6340996077279766
C 3.9714641501311125 -2.4858966255938473 -1.7928623831327828
C 2.9982735653672536 -2.932270406651123 -1.0395513157246852
C 2.6447853131291654 -2.3351325916961647 0.17641732763118517
C 1.5847576822659375 -1.5860508836273046 0.08119132363565132
C 0.39908631419560575 -1.1087018972963776 0.18442246158690387
C 0.3016587627843196 0.29092638939683435 -0.0467021134934038
C -0.8666875341557331 0.9127274552617985 0.02010013449106933
C -1.9679788568662986 0.30314195894172125 0.3057236148022862
C -3.3727437221258088 0.7557632987652829 0.45272694936098923
C -3.8918867561645425 1.361539990642743 -0.8340392398637145
C -5.229817881517196 1.9111141276413108 -0.7632487023556592
C -6.014702883973812 2.504258254624973 -1.8340727796544902
C -5.788925487076402 1.8792773538139236 0.41301618046959243
C -6.344573960153931 1.9730740143488674 1.604159387052919
C -4.115952280482065 -0.4987561209221174 0.7836204837627684
C -3.3183435970347066 -1.5411506794654182 0.8424153982511586
C -3.685359235145999 -2.968430899897918 1.146361044786649
C -1.973269018607674 -1.126838989828176 0.5588902598116535
C -0.8097307059844369 -1.812223296797843 0.49750551389987774
H 6.286818820562329 3.1619703118578366 0.27856277984243105
H 6.223717249926392 3.325850207167288 2.070219887210456
H 7.505202618773393 1.3066404203968291 2.283156755710903
H 7.392310075835409 -0.46107616480875463 0.6844618840905092
H 5.388092224060545 1.5239561517911344 -0.6502590469976066
H 6.50791373616185 0.5174386500350321 -1.6070793839748434
H 4.272143652901331 -0.5515040681923435 0.20388592654994742
H 5.602382011465805 -1.2544300367136314 -2.455180402572919
H 2.4853907946090135 -3.8253689292245134 -1.4589936639626613
H 3.173195798616145 -2.4881014103602856 1.0454984105453429
H 1.1359469410801468 0.9320809707622328 -0.2850047829211055
H -3.9046135765272663 0.5266350690773149 -1.588052684010473
H -3.1981534763201243 2.1296370392690878 -1.2299191472700786
H -6.959765671157767 1.9488695763872885 -1.9641649047928622
H -5.502586590622952 2.48921385005434 -2.829262512521599
H -6.196499369375036 3.5790622322765664 -1.5800016758080715
H -6.933143581539872 1.1146713469525442 1.833617238026121
H -6.139041099414562 2.847476627306252 2.1457564872507673
H -5.188188217478324 -0.5622297931128617 0.9562838089457804
H -4.749138422514026 -3.1609621534353614 0.9235816320413394
H -3.427222076545822 -3.203526175668476 2.2168086828790883
H -3.0431544842593916 -3.634979487203904 0.5330677438740288
H -0.7794757088609868 -2.8896854029515873 0.6825142459308123
