27

C -2.940693040601474 3.2680904221139357 -0.3503346161673987
C -1.6399040862924288 2.8599630935179423 -0.8639081624778785
C -0.8748681970160751 2.1953650073725064 -0.02290762509485507
C -0.22376544645463967 1.4624661301480884 0.8407318383744352
C -0.4803122200677302 0.06885822990888621 0.8100592760278988
C 0.5074014469064356 -0.8654207819208952 0.3611707881896275
C 1.7037643417367678 -0.6224734705972351 -0.06005344233289324
C 2.369383024723212 0.6487515148585958 -0.19390481225041656
C 3.6859177361289133 0.4461065494199442 -0.1422535851401669
C 3.980647848955271 -0.9999646730395451 0.031885426853042416
C 2.722471356413728 -1.6408388951029957 -0.5190006173673452
C -1.6543126911385189 -0.4620534198509352 1.1958416432000794
C -1.9515009244801724 -1.859995750697757 1.1797875900731356
C -1.5838051841531087 -2.5213816359926846 0.10395941107430492
C -1.1825030150395979 -3.1053785037038746 -1.0004122267087079
H -3.583792871922159 2.426348375969896 -0.024374459868912682
H -2.7711036642828586 4.0026578772785095 0.4867263443514235
H -1.1964881101068379 3.0059028524327993 -1.8104000868663326
H 0.42228145843278314 2.033337718040122 1.4672382381189413
H 1.9290689101564054 1.614019815045825 -0.31994489394545056
H 4.420524247559053 1.2096096114094268 -0.21518170691230976
H 2.719523615850742 -1.711016010168382 -1.618077445458746
H 2.554159985012669 -2.615550133929152 -0.0254281523963342
H -2.398048898368379 0.22743399498591477 1.5325592282279548
H -2.42996542860515 -2.4623051303685872 1.909292732549454
H -0.19850268075826039 -3.4881997693243427 -0.9708295108655968
H -1.9055775125880619 -3.114333017807293 -1.7822411731872638
