24

C 4.327400792511943 -0.2766146860032095 -1.2986817626237988
C 2.8683923577257757 -0.03387071191297769 -1.248531977356072
C 2.2338534737946816 0.1503096313437551 -0.1188031782524971
C 0.7748308334720102 0.3937595526981486 -0.058794178944280816
C 0.015692850160222142 0.44178162470615695 -1.1360597009640656
C -1.3607002168298865 0.7017014424693362 -0.6529710030834529
C -2.2921192813107107 -0.403749194227512 -0.9584663710908814
C -3.551593157828423 -0.1453121224750592 -0.764344691642748
C -4.8121586599792545 0.1739859974310122 -0.5485753617182741
C -1.2442584718440997 0.7867026037257976 0.8139525097886188
C 0.012779175092272574 0.6035888770992209 1.1376161678373389
C 0.5773912382303273 0.6108521653624227 2.5444739558409535
H 4.70490827170386 -0.3256360465857977 -0.25771908152806944
H 4.779945973609409 0.6131474630788667 -1.8246861056940755
H 2.2817625301740487 -0.0031861860509012356 -2.1713656405901554
H 2.8146479393022155 0.12088230907263799 0.8080907464356766
H 0.2795707641277995 0.3243938150936654 -2.1810677538968064
H -2.0690975664307385 -1.373855073185949 -1.3129689586578952
H -5.157793413597333 -0.03227720450448409 0.4290434666961191
H -5.308360054919185 0.5947459594821417 -1.3831398837461153
H -2.032668775789832 0.966402913249878 1.5247726191356856
H 1.1880175239052686 -0.3067713487746306 2.701943774013043
H -0.26122217130103687 0.6240995140736383 3.2573129634862887
H 1.2307780460205162 1.4926418119647564 2.698969446555447
