16

C -2.8864745330954427 -0.5041432964294418 -0.31830474993803365
C -1.6796573131692842 0.23674934994480817 0.20819401159746373
C -0.5129931076868783 -0.7542688020422751 0.15141954614224437
C 0.739094138253661 -0.13275917695853617 0.6487355767291718
C 1.7529358902918286 0.003056807860296853 -0.17050039032806738
C 3.051626291291541 0.6102051391584845 0.22063804286196165
H -3.7459382943692217 -0.48999977541437595 0.349484285412525
H -3.085683068828658 -0.3390133975898153 -1.373336584834907
H -1.8970323281911001 0.49092978923670966 1.2632881012695607
H -1.4128942869628838 1.1205872044560954 -0.37894645006017436
H -0.8291037876668998 -1.6089114234053035 0.7943290327363056
H -0.39959039524049283 -1.1511492328086137 -0.8726392409366925
H 0.7808680130380578 0.19292955728850264 1.679490990574936
H 3.725814478231417 -0.11196098879854952 0.7217567533522822
H 2.8554677579224785 1.454924069715626 0.9025845565205547
H 3.54356054618191 0.9828241757864098 -0.7112178655874493
