16

C -1.812213851956967 -1.7090389765280363 0.5152346881519744
C -1.8986266883767315 -0.3144233478696303 -0.01856285785860198
C -3.0638543428012555 0.10064418210514932 -0.4560204474467937
C -0.7362447735634371 0.5623434798271055 -0.05668426800621475
C 0.4417383671535517 0.1904794041908121 0.3680136368587346
C 1.5600411198707727 1.0712723088341094 0.3176528054429948
C 2.7290651462190607 0.5263951965858934 0.4407712041329805
C 3.8606105589606923 0.05261127372529684 0.879517613456154
H -0.7721691634991393 -2.0764773752948242 0.5174953706211405
H -2.434479327835909 -2.3331257184837733 -0.1749502072401794
H -3.1480808496914365 1.1003292696371716 -0.8441003751354385
H -3.925039529908174 -0.5389684262164123 -0.4314594515752218
H -0.8597193024268405 1.5529401507713034 -0.450991545549425
H 1.418839520655081 2.1048003238161095 0.1886377096751281
H 4.481807358361765 -0.3033080028740078 0.12884977004189294
H 4.158325758838856 0.01352625777362471 1.891105335329586
