18

C 4.044442516367712 0.606273045115483 0.19833650490957863
C 3.145871726558213 -0.0006166338708778884 -0.7594248097550926
C 2.1203235894739563 -0.6707946649012718 -0.3509049618738172
C 1.029500704450836 -1.1482738309180056 0.17679972824013857
C -0.09279315598752487 -0.3106482139155421 0.38242313212805734
C -0.9396614178509834 0.10838481488626366 -0.5393163366561714
C -2.0421525917939696 0.9570610580271794 -0.20678420214084253
C -3.2438325530766488 0.5174631741189568 -0.4403638722931082
C -4.405176841435238 -0.03605611700868409 -0.6933488370614594
H 5.005007153022051 0.02772787813620286 0.23829401914262774
H 3.6517318221350332 0.6995879596441685 1.226105378006697
H 3.342744811731033 0.11767084876057173 -1.7731486642178729
H 1.0258368363159311 -2.1438437155584906 0.4329940487890108
H -0.28208469809938624 0.02396211064506041 1.39435079276878
H -0.7532130325921801 -0.22438655167924548 -1.552230988719736
H -2.002136161967232 1.9230377152385665 0.21654220340152752
H -4.7788148963394885 0.15954263846832886 -1.6724452328991324
H -4.825593810911824 -0.6060915151886377 0.10008026499589298
