9

C 1.477753062303325 -0.0701983425513546 0.012773242488434856
C 0.07450300105013861 -0.2519838062987603 -0.5405559241596827
C -0.9064880332238198 0.8109907400562599 -0.26337665111644554
C -1.0109788351406608 -0.4450452313522624 0.3905149723001113
H 1.7317744214400892 -0.9333193167857348 0.6493354505978053
H 1.5792388145768645 0.9055483847512635 0.4956129423415265
H 0.03713453227014194 -0.8185304368245587 -1.499865624421103
H -1.3563103951161064 1.7850037901804454 -0.35814816112994946
H -1.6266265681599659 -0.9824657811753011 1.1137097530992954
