17

C 3.331898746916623 -0.41495521283787223 -0.4856352238074598
C 3.0198932665914193 0.6246886418060155 0.47799930924282946
C 1.7558148251408547 0.72810446281731 0.8492574233860721
C 0.4647811516025947 0.798591985865261 1.0542420582557812
C -0.2855843858977715 1.650735028482897 0.1379996323113022
C -1.3072168567180564 0.8341910282563859 -0.5482043618985537
C -1.9250424916495623 -0.10995694178462652 0.11214762148954817
C -2.950076719316815 -0.9274379136534208 -0.5805811402091752
H 4.356545791221527 -0.8175762501544613 -0.2338214234235216
H 2.6464690522271397 -1.2690218915410876 -0.4123275762758192
H 3.6367501749406133 1.3348961227884206 0.949157849037035
H 0.13957941280114283 0.2153075849457157 1.8708271761641326
H -1.5350934405098597 1.0189430377729465 -1.5771970918662537
H -1.6981921402391318 -0.29980077769762836 1.150679316973202
H -3.6628368105776765 -1.2962541234167637 0.1869378903631309
H -3.534257143930148 -0.3055383647311252 -1.293706678753643
H -2.4534324326028663 -1.7649164169178984 -1.121481263622344
