19

C -3.5800731901126994 0.28427225235982667 -0.687020496579018
C -2.308602347554497 0.13205806278406282 0.03767095124974452
C -1.5286617797136792 -0.8995223487375232 -0.19540316935330046
C -0.22149034727335465 -1.094882049815811 0.5215725972540487
C 0.8609106188892761 -1.1226593948917227 -0.46313059813969126
C 1.8747987370206682 -0.31335458011172607 -0.532715238646367
C 2.0920897085746435 0.7775612310758009 0.38870903406923374
C 3.1404318030433243 1.5930757941562173 0.2955146081095545
H -3.608550774932666 1.1539154218590628 -1.3718693035509306
H -4.478136731496702 0.22672501009186535 -0.03214320607167528
H -2.012831595809518 0.8663388403592692 0.7621433080080778
H -1.8348472022860318 -1.6328469438712085 -0.9260823415141626
H -0.05133445027083068 -0.323504948862061 1.2623657132156476
H -0.320735818251234 -2.073189937398623 1.0753643578859688
H 0.8084071886985988 -1.920309682627087 -1.231056849522959
H 2.6253596451821757 -0.45096667707048244 -1.3360869966874538
H 1.410280574395143 0.9709608831871663 1.1869975330932077
H 3.8508131523480844 1.4269170158023847 -0.5011019695530784
H 3.2821728095482445 2.3994120517109225 0.9932153908363707
