18

C -1.3535348513628036 -0.6165990194909649 1.4258450151070374
C -1.7845064632543386 0.30046024781592917 0.3663604633677793
C -1.9022819963393682 -0.38190909135171536 -1.0240318127583856
C -1.0097961224708547 0.794303881028514 -0.752762086833092
C 0.45510220959140923 0.6709437379087848 -0.9276395064687063
C 1.2241395027378932 1.3286454025047814 0.16386014964641546
C 2.111428584266716 0.4674561287011512 0.5756585389255369
C 1.9860268579262887 -0.7703468371047676 -0.19336050255958734
C 1.0162477643813512 -0.6533519749219846 -1.074439055645901
H -0.29731531501068165 -0.772417666257697 1.5913755115374062
H -1.9852532624600334 -1.5112099332454254 1.582698981551384
H -2.765571783877437 0.8182702876023411 0.5946164871880562
H -1.467051543814469 -1.3697614584092939 -1.1505932507316619
H -1.406691066554963 1.7333307738630703 -1.2526779239064654
H 1.001396912031117 2.344686539288407 0.47895488350878174
H 2.825391063069148 0.6861459136226854 1.3836852384775304
H 2.626501327164563 -1.6493321021068479 -0.030635096933317577
H 0.7257681839764182 -1.4193148294469125 -1.7569160334727287
