19

C 1.9549204430732379 -0.26356198092639566 -0.718796441971074
C 1.3152525064306786 -0.8244788130783699 0.5113828041384707
C 0.06803929805739604 -0.08512287127552813 0.923106423181491
C 0.2965428378756943 1.330467265415516 1.2204244786776437
C -0.02037543295669232 2.251101470286628 0.32481875149909706
C -0.6047714433697151 1.8979039801306719 -0.9847941875270338
C -1.3697205941731596 0.6313125534509562 -0.9439216011246775
C -1.0442002379980897 -0.287515160015242 -0.04682944361857105
C -1.7808081213882798 -1.5782564653306383 0.0360295233294824
H 2.3790504273801543 0.7394962141245597 -0.4412553512346316
H 2.827390555765909 -0.8967215738079811 -0.9661585370782071
H 1.1604212937913647 -1.8984151438896069 0.39561411158354265
H 2.0430964447930515 -0.7019930644009302 1.3584141116624826
H 0.7183759177096294 1.6297412356289427 2.1571157979466444
H 0.13938302025877758 3.3229627494911407 0.5202340106505072
H -2.204047593186025 0.4363508773302995 -1.6431800808282548
H -2.8758747262291773 -1.3713635129279214 -0.11321571211293216
H -1.6236120449174143 -2.092761492521609 0.9828564172822833
H -1.3790625509170904 -2.2391462676846077 -0.7738356883581939
