33

C 6.8134036924576185 -1.439360014344115 -1.1660298375529263
C 6.881823493512317 -0.49004192106524824 -0.03167841672111668
C 5.811770854839719 -0.04046963288061415 0.5254124811126984
C 4.766397132144204 0.5216056300970804 1.051496364172608
C 3.7933565663531756 1.1132573657090246 1.675363770492167
C 2.4795988130214255 1.297827873538013 0.9845401801930396
C 1.6756278236657747 0.0751192419566748 1.0006004176109398
C 0.3732575030323769 0.21974620161131506 1.0254031756350739
C -0.905275906244839 0.4941566855972313 0.9285562814865282
C -1.4442533404719042 0.6330263196854501 -0.4178290729257944
C -0.984580057441039 -0.47164722138926585 -1.2855383214539098
C -2.0117531753143316 -1.0990659909232297 -1.7880087017577861
C -3.23880700071252 -0.46115217348544885 -1.2941300715404143
C -4.605514995983818 -0.8935433372584031 -1.6453503438323738
C -5.597946862912826 0.0966040666594128 -1.2571256210973494
C -5.883068972387744 0.17367119117662924 0.01950712224303589
C -6.107455338179889 0.17962833869990305 1.319660182509061
C -2.907157468824249 0.5433709947618728 -0.4994732585779241
H 6.595999787090025 -2.4670961280082535 -0.8595698906912925
H 6.173614861786368 -1.0706007079503421 -1.9954172405471102
H 7.851891065999387 -0.1557209927273039 0.35074269777573214
H 3.8904437998783723 1.4842835279803488 2.6865484360811602
H 2.7134143856615713 1.5409308661983636 -0.09127688002397165
H 1.9249942452644082 2.154561675154287 1.4041266233333196
H 1.9909387624635801 -0.9274267594383719 0.9935131125273511
H -1.3808746362030158 0.5803801923070036 1.872112553150994
H 0.07533324735106932 -0.6982918490261358 -1.456334933521951
H -1.9322961306354376 -1.9540818976193086 -2.4616834906272493
H -4.68340046667637 -1.2617715060059271 -2.6806272639908446
H -6.138066921616544 0.7806320751042484 -1.8612841166921117
H -6.877858767232187 -0.47163598285665664 1.6313347870460109
H -5.4819008199922825 0.8363948238727967 1.8642977778352186
H -3.631655173692567 1.1767090448689725 -0.005446882337417179
