39

C -3.5223382233537484 0.6095949573873413 2.0344541282277744
C -3.7930665604396996 0.31584860498704787 0.5952502984029625
C -2.8915477823002624 -0.21889030405031432 -0.20746231085969355
C -1.5666872362292998 -0.5253129240692125 0.3859910370067261
C -0.7395791728586394 0.6768662356030288 0.6039385820697123
C 0.5394576063230023 0.6325841805590456 0.34574336866510635
C 1.1419323240662709 -0.580575972805164 -0.14874832723653764
C 2.436211070436249 -0.6887542870800719 -0.42993889997724255
C 3.3312759916714905 0.4758372034302519 -0.23685232286041086
C 2.9563879718978776 -1.92203926154733 -0.9149837875924521
C 3.5614828775141754 -2.6969589035071535 -0.05899464094779453
C 4.152435340121635 -3.4073754821354165 0.8787401538504541
C 1.3779884743009636 1.8235328191033828 0.5580177450438967
C 1.0716201140548574 2.5280692830870612 1.8568585659880534
C 1.4481102211993668 2.7260593776412283 -0.5912223114160281
C 0.4008530383017481 3.0680896393068875 -1.3386013058410084
C -3.234277357450233 -0.4693476372399069 -1.5804997601732915
C -3.3699100603601497 -1.7290333583667103 -1.9152185528457482
C -3.4900238655700075 -3.0187879944524143 -2.1791969512305336
H -4.39524010051739 0.2919952526296343 2.620990943873221
H -2.563234058151116 0.19059194899824214 2.380890863607982
H -4.762284966777589 0.5542211926762698 0.21368048063005768
H -1.6058242207005675 -1.2028765814828721 1.2406563038464664
H -1.2112653522002084 1.594217249623449 0.9808948387218441
H 0.4797110234010582 -1.4444972959981974 -0.2923180395946536
H 3.6721470522351893 0.9147992715170398 -1.1911130348578993
H 4.183579407620263 0.23424167427671255 0.41433149349024745
H 2.924085629204716 -2.3204349334188024 -1.9074129764642727
H 3.5148432161720216 -4.07514230076933 1.3928620146793909
H 5.1865184617179585 -3.21281685530684 0.9912691437139918
H 0.2395042889351189 3.2717477669817954 1.7437493781978892
H 1.9895836878785689 2.9644487149024625 2.2466316888301865
H 0.7012593854018889 1.7456161487152357 2.5659804377917723
H 2.4061138382109295 3.153133963841871 -0.866459416032087
H -0.590773731077131 2.670313644837365 -1.111087128402027
H 0.4740675262907515 3.7349782100225597 -2.1815829591887743
H -3.395069711499284 0.21600038371646996 -2.369048109469137
H -2.5931080947416953 -3.4807201584960694 -2.4912382990264246
H -4.4649380527289 -3.3992234731186635 -2.038952332621949
