21

C 2.853452887351398 1.677180575398792 0.07417154456405509
C 2.6680220975086533 0.5014960835608289 0.9154944744632779
C 1.4358340108135692 0.24063206595786307 1.2631122071753487
C 0.16289873216093195 -0.02542993695400458 1.467913087469778
C -0.48907338369462877 -0.8385997617577373 0.48296242820852425
C -0.3226991834784183 -2.153098099242703 0.37304777351808405
C -1.1137444743686475 -2.718968753486737 -0.7221320599449482
C -1.796840443203109 -1.5330751407447176 -1.2704318006960598
C -1.4269922573157443 -0.452265057975216 -0.5646305906052516
C -1.9175107528226447 0.8813445837941184 -0.843786447128463
C -1.5583370265988674 1.9428963056978257 -0.15550582689566492
H 2.7235343311936075 1.5285510579783377 -0.9960789001050102
H 3.699222607522379 2.3254511792977004 0.3549158319982048
H 3.379636269064971 -0.18406292454235382 1.2936067895447496
H -0.21513495564946142 0.4072796417425291 2.3498000335879863
H 0.31997334860527693 -2.733125683418358 1.0160437130164544
H -0.4248885543097368 -3.1851391599735948 -1.4784342891569928
H -2.4789863041511526 -1.5844630023746917 -2.1112620030628713
H -2.624338142525232 0.9988486762650334 -1.6743985698604644
H -0.8879791957399941 1.984218179730093 0.6685055040659599
H -1.9860496103631655 2.9203291710469657 -0.4429129001566738
