32

C -3.090736538993637 -1.9540681174568675 -0.119249915448935
C -2.271888625294762 -0.7683217085221932 -0.15332803676490253
C -1.0222576140800366 -0.9676629155726014 -0.5432060547120062
C 0.1875007606214345 -1.1968356068891457 -0.9936059710156268
C 0.348980911323993 -1.0859392084886756 -2.4269034446908813
C 1.1053335059983693 -1.5117092042450666 0.03056123099377518
C 2.2753704658873404 -0.9177613984384639 -0.02150967277286179
C 3.3760986742674843 -0.20413178385759767 -0.11017028750240283
C 3.355727612571636 1.0632256543499772 0.5420560861729984
C 4.29470687787095 1.2870986251047742 1.4308460411380166
C 5.271506235540028 1.4202741528729008 2.3038121817173467
C -2.5401366689369613 0.59081171197312 0.15152737603652192
C -2.5244600837193363 1.0795640557354684 1.3870810593958223
C -2.2079337655890625 0.14180490849322427 2.496415377496285
C -2.8520238967154192 1.5195355919597693 -0.9312353562261874
C -2.888774515382138 1.1106950316659443 -2.2020150165670342
H -3.04971393385613 -2.5971194405635503 -1.020274010175568
H -2.8736086726620216 -2.5336079816803325 0.8163153024079411
H -0.1066362392343979 -1.9878280057784847 -2.9114011530238675
H -0.09314194257395682 -0.181251789167488 -2.8759143098715776
H 1.4498528253619465 -1.1584823978515897 -2.6612677064121284
H 1.0177747472011316 -2.1653702975761555 0.8676016284182564
H 4.1398223371707585 -0.6765652507537884 -0.6647383659769716
H 2.682568217652278 1.875168272144673 0.41814454788788896
H 6.161905331697978 1.8281364319888571 1.9034836074393957
H 5.030384221716329 1.1007132227824101 3.281920005568157
H -1.1636991442681923 -0.2241165673920331 2.308941905231282
H -2.8407357662740336 -0.77908654843683 2.4541783780168904
H -2.304548863754514 0.6507994424413306 3.476304452821394
H -3.0642134539337675 2.564593116584957 -0.7565889907264368
H -2.686157962926041 0.07084041347241717 -2.4614544898329607
H -3.1168650366897466 1.779790855083828 -3.0163263990212097
