15

C -1.4820626669026367 -0.7549561130161352 0.520233714944228
C -0.2531612413534844 -0.040329490690238466 -0.012440178193995238
C -0.7393974017460555 1.1898881390852174 -0.817463012036375
C 0.7344641073970697 -0.8406165116713171 -0.6669093711503788
C 1.6652985031250387 -0.5198163196657932 0.16747561774158137
C 0.767454690705102 0.33714532557998006 0.9372055847792592
H -1.3082219795225638 -1.30165456676734 1.4416786431696886
H -2.018047154771169 -1.3002639887459557 -0.26866899742773953
H -1.4678241785484352 0.7678506524610337 -1.5399025701184788
H -1.228437621320694 1.8356677540007993 -0.07880323114614282
H 0.1632396180912691 1.6051790478167338 -1.2768550220662471
H 0.7405266403751585 -1.5011372775340155 -1.5559103657516054
H 2.7427740251964137 -0.8158345079289184 0.23243987108667502
H 1.0143038645166815 1.4264195119144538 0.9471420723320019
H 0.6690907947583182 -0.08754165483852294 1.9707772438375444
