19

C -3.7852219820207664 0.012903521506428964 0.36192655606992374
C -2.614793053371597 0.04441626541740571 -0.5790618970123582
C -1.7835098063747166 -1.1449267959292297 -0.5610790789850103
C -0.7484318020295218 -1.1426208324323945 0.22658361354561812
C 0.3284498892557243 -0.9801550377691367 0.9766204158343255
C 1.4666901160222696 -0.40128429380135383 0.32472578301370475
C 2.132372148485789 0.613363157273285 0.8173373447844828
C 3.28613042821088 1.2580119834285155 0.23137241289145516
C 3.7693955938624417 0.8302460159941951 -0.9159579043097152
H -4.1180614931607105 1.07070035752003 0.5029239517081524
H -4.657610272652399 -0.5558861066158189 -0.04648425733284695
H -3.0343034949577605 0.15395096431666266 -1.6186155371098445
H -2.0500108556135874 0.9757904033190302 -0.3903008017920504
H -1.902213152866823 -2.0372793462246546 -1.1137687359334647
H 0.19472555808675807 -1.3045631153421462 1.9679219476286156
H 1.7795016540282642 -0.8316568005726346 -0.6162974399861243
H 3.71220853267344 2.086646850974576 0.7783094740306536
H 4.641401494475217 1.3387941126192402 -1.3312622676035628
H 3.383280497946764 0.013548696318303702 -1.4966006946167378
