13

C -3.137001644464679 -0.6711331683973222 1.0464164479757805
C -2.111792321134582 0.07789859481347176 0.31824907988157625
C -1.0227543943341715 -0.5358242367016922 -0.11205368145383408
C 0.03187651418289021 0.16351511466447533 -0.8437892512703014
C 1.2627985617887532 -0.23777203147762263 -0.7076581817729106
C 2.5157883296276857 -0.327036532713506 -0.38633915698861765
C 3.8011288916060813 -0.22286534342310999 -0.15804313722517158
H -3.481266007668471 -0.1664858287011476 1.9803724012977557
H -4.020147567789105 -0.8076777792019725 0.37276858394482015
H -2.2059600585084294 1.1347239431865717 0.1110179085962536
H -0.2674651569043267 0.9932656307066781 -1.472332763948344
H 4.480590475864461 -0.3020649901352695 -0.985174550463167
H 4.154204377733844 -0.06225367879807023 0.8365663014261832
