25

C 5.268495325490012 0.9466056540693549 0.22446192746345514
C 3.9082714021110263 0.49622795597494457 0.5854693552195609
C 2.979364297882699 0.2698098150150317 -0.3148810111744857
C 1.638381431322954 -0.17376371160345147 0.03487054153240851
C 1.2376068836594354 -0.38656911656667203 1.2734029484076725
C -0.20115713462164536 -0.8354624327266587 1.2666727950882877
C -0.6500968984118671 -0.41281954627663475 -0.08597325295407031
C -1.8450974755382294 -0.06771161483856517 -0.538138734807218
C -3.063309304536424 -0.040427951023951234 0.3110012663947671
C -4.3036099081072985 -0.194364562136648 -0.48019040066079033
C -5.217321517023191 0.7645123027019013 -0.4569089767790075
C 0.5681988717275398 -0.43908086576480027 -0.9392665420251858
H 5.75646066415063 1.4954201055004581 1.0507892150568543
H 5.902480109036688 0.06450920674376985 0.004992326230097683
H 3.677157402056293 0.35063645793789083 1.6230648450118086
H 3.262804939404521 0.4328067739729896 -1.3673365787635583
H 1.8249711939048372 -0.26665369724628524 2.171325303405223
H -0.14053387442932547 -1.9628377478930665 1.242573114510653
H -3.142662214729997 0.8429538996769373 0.9463263000113332
H -3.0042757131441187 -0.9555773487872097 0.9710709335591136
H -4.493390399365204 -1.078369845421967 -1.087625603232438
H -5.059953985427682 1.653826950212579 0.13515088594086544
H -6.140099317207769 0.6907356104766216 -1.022515564568283
H 0.7115201898015292 -1.4870713181107151 -1.3160090622438358
H 0.5257950319942636 0.292665026114479 -1.769798391891312
