38

C 6.482089829632031 0.4276188816233919 -0.09855418516498103
C 5.836728988863342 0.6949606953713691 -1.4111547985703292
C 4.722672861684646 1.4173908999946765 -1.5212566402317558
C 4.11521387425912 1.9605112184598286 -0.34856369078119676
C 3.2727980670821255 1.1817248904121258 0.2788224221715563
C 2.4614067269126148 0.3358561605731411 0.8108926695493422
C 2.8428176875286137 -0.6213107843592017 1.7964617967472696
C 1.7193135247468438 -1.3069710510422998 2.086652531764125
C 0.6055739632217716 -0.7918713348330344 1.2858047679486926
C 1.082810945098 0.23504279123879648 0.49230700421670964
C 0.23273445245897342 0.8842067202299575 -0.35214842261150325
C -1.1211296186551287 0.5254493041006332 -0.42830949774137217
C -1.9609903598317842 1.187671148691806 -1.2816592782313818
C -3.3163322099470336 0.832430817183724 -1.3615029148094264
C -4.1857503296486795 1.544366091594301 -2.2690623302508
C -5.451175879501836 1.2783241295488201 -2.403328122629005
C -3.7752169285320374 -0.19112450010127058 -0.5655906286463827
C -2.935830060774344 -0.8552660458191663 0.28936831814076014
C -1.5871533018160606 -0.5086734562352546 0.3751014291716892
C -0.7481572641297767 -1.173852468919246 1.2308483866934583
C -1.1793645301177647 -2.2685248969420657 2.099784531800589
C -2.596488116567742 -2.5837942476697595 1.9651415991625634
C -3.3832652538545784 -1.9428558592290284 1.147004967082602
H 6.295689515619364 1.224927969988595 0.6417082635529078
H 6.210489110573903 -0.5707063876090754 0.2948858135783603
H 6.3118515320902695 0.2749312571824772 -2.2889004836629203
H 4.223806186640031 2.8980642983177898 0.11631795965835959
H 3.777219597846085 -0.8277835776091557 2.2627500455816936
H 1.6177323788912286 -2.114483863650384 2.7920836538899674
H 0.6051972695493923 1.6873021669689148 -0.9729321472278981
H -1.6024434448270168 1.9865478432873744 -1.902743474983663
H -3.771127996851636 2.3429337384050872 -2.873325599294925
H -6.093446572077104 1.8394104960774793 -3.105825438100792
H -5.966472026070999 0.5168578449906412 -1.8627049806293134
H -4.798798908836587 -0.48551782073159094 -0.6020945394934988
H -0.5174725725730696 -3.169552696978095 1.9912411006500144
H -2.994509453759064 -3.3941917198090414 2.584955758768157
H -4.431021684328115 -2.2418963764718707 1.1075241529343645
