24

C 4.812770820915248 1.9357299747040668 1.4036467349537138
C 4.728500617290952 0.7401063935218976 0.5784638260564902
C 3.6342978309614224 0.6198631810026553 -0.1539237177228701
C 2.46923649316741 0.5466220092750931 -0.7568989403740375
C 1.3989942656487133 -0.09901289317256667 -0.0004363198507549535
C 0.19588295694120728 -0.1712199227334721 -0.8225046932226078
C -0.5572113881430303 -1.2283894106393352 -0.6433885645541135
C -1.2991626057558376 -2.2650543624736916 -0.33471958696151305
C -2.2372969483209566 -2.0748098223322713 0.7135932525894914
C -3.335249393144887 -1.4096577535769446 0.3915842069017894
C -4.3408200823831145 -0.6528149615884851 -0.00030756403222467505
C -4.146484123009636 0.7798107168944178 0.1395867109078466
H 4.7990962119540255 2.880598549405495 0.8283204090191892
H 5.587900343085566 1.905123888367219 2.180926191458842
H 5.394346324108517 -0.06645104687649125 0.4557607001937281
H 2.4672811699142256 0.9731816826783298 -1.7209715858623282
H 1.2669050729679612 0.3166834074977301 1.0003406326195359
H -0.1710279369557801 0.5010282410097271 -1.5472848339255512
H -1.0869183132563596 -3.1177398175185442 -0.9248448825641677
H -2.2254104418399665 -2.3686553716790346 1.7252080911256988
H -5.157234575618825 -1.2109211830303155 -0.36743763932776646
H -4.994097528225231 1.372874417211308 -0.27319199760632884
H -3.241837389346987 1.0698878199396802 -0.4585064616643716
H -3.9624613809547884 1.023216264113459 1.191747141161564
