32

C 3.2151499844898614 -0.5633992286061744 1.8650544027926357
C 3.1199853000164604 -0.19666869696057473 0.4146093987721409
C 4.1608014673778095 0.26388804552397416 -0.245722095842984
C 5.0241241312344975 1.061361778245915 -0.7968967979265349
C 6.056476341595757 1.679600969474721 -1.2820401981203935
C 7.130117373128527 2.4230812845452907 -1.368741668870529
C 1.831562687164399 -0.37073443400789774 -0.23147739632487038
C 0.7140994365340902 0.05891298104483365 0.32671872437920424
C -0.6155911345240026 -0.09256995918707052 -0.2857998620366224
C -1.5232077765761796 -0.9115797520834779 0.6263465668883949
C -0.9196791376106174 -2.2803610214095746 0.8435444299416508
C -2.8555906966713773 -1.0765021627060571 0.0014282350090607005
C -3.8696628091585232 -0.2708548260605802 0.25896625080125174
C -5.14602786775029 -0.46868238364168474 -0.3710410276030161
C -5.7803745700330165 0.6079632138480613 -0.7492322571880987
C -6.351568845037465 1.7400038237439028 -1.0994123507160198
H 4.07733401811512 -1.218959234267768 2.0432074978700046
H 3.351492694736942 0.39458868185308393 2.4250647469744293
H 8.128972040304724 2.009665941510566 -1.2453965603522885
H 7.086953987176118 3.488784507233352 -1.5675166481642153
H 1.759261453623021 -0.8578976083245986 -1.1874428797197294
H 0.7788586428017215 0.5471010792486809 1.2828129401938682
H -1.116714911365534 0.9096620532658533 -0.36990532420060857
H -0.6016021093551299 -0.5387258474045116 -1.2846579611277797
H -1.2090902670563413 -2.997169565186599 0.024822812817272305
H -1.2081500748277079 -2.6733865586703525 1.8372830564119644
H 0.18407815034935548 -2.1669394242506224 0.8526337137070353
H -2.9834548828717087 -1.9000786352279369 -0.6945346577371656
H -3.702302620745832 0.5349106858085932 0.9556003911235752
H -5.651514131036638 -1.3722611075629636 -0.5748416746172488
H -6.973410562177585 2.1662344667142643 -0.3577923089516952
H -6.111325311850949 2.0710109334971927 -2.074152093881083
