28

C 0.7516909017512369 2.1887179223849254 -2.0779824589350215
C -0.2636112971187815 1.7807589419169696 -1.0536858482150602
C 0.13709066354594826 0.39932704704485006 -0.5377506434143088
C 1.4924103411794414 0.45556070883333993 0.07603704162991003
C 2.293900642379153 -0.5973293338552371 -0.05243801670031248
C 3.6554545562309517 -0.6549341935015968 0.5125514967583551
C -0.8642583778237518 -0.11368613313796608 0.42558037795967846
C -2.2293050652785666 -0.2370620402524797 0.007908388541102639
C -2.4388109445933286 -0.9991369282461675 -1.0372798449937588
C -2.58122259810551 -1.7631238798949918 -2.0834605982208947
C -0.4764020219491402 -0.44479552111203147 1.6446323004936156
C -1.4850086790357218 -0.956684943419841 2.6003945045215073
H 1.7547760868500268 1.9006638790627708 -1.6950857942197228
H 0.7680094831665161 3.2900678319305374 -2.2230436688791837
H -1.265049734951534 1.6974658042749042 -1.5107342436768298
H -0.2903678792315888 2.499203334796855 -0.18757177075894005
H 0.19055303454453934 -0.260008615593807 -1.4095830097397715
H 1.845441135916058 1.3327622991989452 0.6261971269308996
H 4.385560804913085 -0.17744522401110852 -0.17144536472681696
H 3.676231696364462 -0.06964237965010997 1.454512333860746
H 3.977751645840699 -1.6750933004834814 0.7675366060198012
H -3.1039126106272787 0.1957422739966789 0.41604147954744114
H -2.739390224152626 -2.8024046855069185 -1.8671051912306265
H -2.524112532585896 -1.2755753052318326 -3.0239603896021463
H 0.553910238450164 -0.3452057689714725 1.9404161375334155
H -1.0304689654585804 -1.2797424311824828 3.549254796817351
H -2.277878069653633 -0.20020843806149902 2.7772261380794747
H -1.912982230570207 -1.8881909213265249 2.132838114619837
