25

C -1.9425256485887425 -1.0782698178425925 -0.6443343385256781
C -1.8903227190180594 0.18891350543295285 0.08507612721271632
C -0.670587196627524 0.7895766435171394 0.5233033028401282
C 0.3474856889910717 -0.021728565564289228 0.7004634556195083
C 1.3224651615297882 -0.9040968847638784 0.7501804825302574
C 2.045297045580107 -1.1046019309938924 -0.45823313458932224
C 3.0466065934536553 -0.26859246184557095 -0.6822774662061029
C 4.0866274073917666 0.5384072396307432 -0.7488136373330841
C 5.3133315249233934 0.05740387116813848 -0.12849285124494433
C -3.029140488574229 0.8074426265283488 0.3509752352071493
C -4.3012964411065 0.24701957362567917 -0.06831390331661581
C -5.4096887533019435 0.8926372024659562 0.2154410064023245
H -0.9314457989031056 -1.52825030033487 -0.7144466982739983
H -2.623023062014526 -1.8139980885835536 -0.16976555771180557
H -0.4396885324515189 1.796138050048395 0.7331939021857476
H 1.4286407977708455 -1.3476213635039214 1.7045275188040998
H 1.932421199331505 -1.8140202197869155 -1.2313092352032708
H 3.876718482903655 1.440733307660487 -1.2534087952456212
H 5.097003321748577 -0.3294564409934433 0.9015963713424625
H 5.787879951255502 -0.7920048848160091 -0.6849902545065093
H 6.077872131397311 0.8617000900857459 0.02797893077650212
H -3.024367215836186 1.7564706938808985 0.8945886131059106
H -4.318655938430324 -0.6862949470021159 -0.603913030886459
H -5.397750642396916 1.8294529128787471 0.752617874888944
H -6.383856869027972 0.4830401891070891 -0.09441878014850533
