19

C -0.46632738665074636 2.165955601659675 1.1284366064256317
C -0.6058564762436383 1.5581516209528705 -0.25025085573694694
C -0.21989953412044289 0.1364911865446291 -0.2551847747133621
C -0.9467365771752095 -0.7960215552913668 0.5756156735960661
C -1.9527008690790488 -0.45885352953279784 1.3518955408689768
C 0.7705086326543821 -0.2728933752049779 -1.007362399928159
C 1.2867486767513723 -1.6046735404708166 -1.144070150563969
C 2.2939103623860073 -1.8619297977373885 -1.9452907061494824
H 0.5340041691486881 2.6344968493353753 1.2620623988195458
H -1.2641071146851741 2.894970925218779 1.3519112500992851
H -1.666768377940308 1.7011390775377069 -0.6074615971963191
H 0.009532612516823111 2.173546185207785 -0.9360090877292662
H -0.6484562178191372 -1.8382685922452504 0.56175029125248
H -2.4632719203246345 -1.1832540484206084 1.9519345035806728
H -2.270758758771727 0.5599378856941902 1.3826218807188724
H 1.2760339543912642 0.5026222414273246 -1.6160810389553713
H 0.8574681444394504 -2.4169616716891955 -0.592062527345901
H 2.724769057060953 -2.8377422323216597 -2.090378232941095
H 2.751907623461033 -1.0567132306641653 -2.520197894880252
