28

C -4.056619765794253 -1.091674447401145 0.8718310169208248
C -3.1694810631367947 -0.03354662812005463 0.5066929137903868
C -3.197052206785677 1.0653983560500648 1.1898273990843742
C -3.0432611939304572 2.0773814756049616 1.9836701812468016
C -2.2415825928743036 -0.15380284627242363 -0.6003764587818986
C -1.20747779192744 -1.1557831160245737 -0.6760018436985441
C -0.8471030595036304 -2.5958809899634443 -0.8190098375326264
C -0.837536265194456 0.1405444969113273 -0.5261149283841225
C 0.28598723233146695 1.050426693229806 -0.3945874705658685
C 1.5438382316383368 0.649642851275047 -0.39913475994458614
C 2.6471388867593117 1.5716211699265337 -0.26692463717764237
C 3.896488263154541 1.1628336206334888 -0.27262075773602545
C 4.212963033216151 -0.24145102418252243 -0.41321152676084605
C 5.4747622732988726 -0.6349717839443976 -0.4169055429754128
H -4.650287659917775 -1.4433053231608215 0.02071595485057843
H -4.625512975122806 -0.9749652124310826 1.811862199947778
H -2.3863085767613246 2.096683889927328 2.795677349924107
H -3.6322911620974825 2.9120827837234717 1.7657773003741202
H -2.7342796498292246 0.07334002849534785 -1.5969648922007302
H -1.143340635596706 -3.190122181087348 0.0758635984215923
H 0.21300138591462364 -2.7644309640111326 -0.9983797438549156
H -1.4452968960057178 -3.030778598510344 -1.668561272915418
H 0.09825013969208682 2.1060411560250207 -0.2874165705679601
H 1.757495460403577 -0.41275672671840363 -0.506233703641584
H 2.424893790636162 2.6162461839781512 -0.16194247391656308
H 4.686290553502619 1.8737329098831081 -0.1725440539750617
H 5.665624306822271 -1.6971814666599403 -0.5247238690635837
H 6.31069793711756 0.024675692825602717 -0.3209130482116555
