19

C -2.0400114544622583 3.2630536529835554 1.2085499844900185
C -1.7366518254868821 2.0101494826711885 0.4685479144572321
C -0.5418046139382966 1.4910868863001476 0.5552466688669145
C -0.19628186681990814 0.26560213568563024 -0.1506090233182584
C 1.0213377685476226 -0.2255467797790925 -0.03661187189493394
C 2.2155486114019274 -0.6730928999743278 -0.1983689799319345
C 3.4546500579325863 -0.9827821376225733 -0.3014269514296638
C 4.700974315500322 -1.2075127328345348 -0.5797693402507597
C -1.205767599821661 -0.3668604795552112 -0.9518193068484241
C -1.755654952705612 -1.4407289267936514 -0.4307300497925998
C -2.264631377061486 -2.500346209529989 0.1488604513350348
H -1.7030274925323416 3.184065269131088 2.273437852163177
H -1.483569890000176 4.09653427960516 0.715290947554046
H -2.4905534408526395 1.5224871487912144 -0.1402772131481699
H 5.420897966801698 -1.1747498224886102 0.2069738787724528
H 5.050214617153542 -1.4274442261482247 -1.5726916240040216
H -1.5798723872318547 -0.1037166022247786 -1.9019761119516587
H -1.7585066269754142 -3.4122432337396877 -0.07274070455807259
H -3.107289809449159 -2.317954804477221 0.7601134794896781
