13

C -1.5165828391667988 -0.8545305341533882 0.3207254302978943
C -0.9749140382188015 0.3522168811999847 -0.40173847915522576
C 0.35709927802344454 0.8072251765826776 0.11195292364068697
C 1.435020373661193 -0.2261605827761603 0.0005263026742229686
H -1.8264350384637607 -1.6616586797180743 -0.3533664119245542
H -0.8509214851005921 -1.170025370951125 1.140529050425965
H -0.9252022808185083 0.20369694378070585 -1.5004495768423183
H -1.6905489525960116 1.1913261868450942 -0.21025942021013938
H 0.6050071714598543 1.7594522807572937 -0.36299803552137094
H 0.23598560952811062 1.0260551815662142 1.2114166864244758
H 1.734416013260965 -0.4479213054391364 -1.0335705009844878
H 1.1050664895586464 -1.1396388102185129 0.48496868864135484
H 2.3120096988722616 0.15996263252441498 0.5922633425334954
