53

C 7.883071361139717 2.325593713876978 -1.1455563464941156
C 6.651453612297885 1.5508382806716183 -0.9134218934525433
C 6.228884291598819 1.369791798529407 0.329267850616651
C 5.002835184931877 0.5991577688845523 0.5687847767426046
C 3.9588344275577354 1.4320807099906299 1.3282618390965302
C 2.793390599714142 0.5602052359272676 1.5040199648111188
C 2.321385525671691 0.03574295457689701 0.4135556610772248
C 1.8234316109918827 -0.3634854981362845 -0.7301818034645777
C 0.8736849778617878 0.48043022785998124 -1.3588000152566868
C -0.19140339784643312 0.8019322313903147 -0.6454085894112807
C -1.2249384444570972 1.0133559704008037 0.12539183784251792
C -2.286984736876174 0.005915675092883539 -0.02099392382984564
C -2.839889722106335 -0.0690255727294395 -1.1931232239355734
C -3.856539209147266 -0.8597710173341927 -1.7553378197416747
C -3.9072837352607777 -2.23438474059339 -2.1775113724809025
C -4.979468657673882 -0.20783844040856303 -1.9657977291927011
C -6.114380943247315 0.4222267903437914 -2.1138909774871895
C -7.018539999207923 0.36009266156348324 -0.9934506573372007
C -6.233981579388708 1.06821176809823 -3.4024942045718465
C -2.607473305436013 -0.8009320643498131 1.1387471106150682
C -3.6945327854947703 -1.8454127662608593 0.9610294024234469
C -2.039229124398172 -0.7122318710572654 2.3235107578413516
C -0.9866208924437314 0.16964906244325276 2.7853941636684474
C 5.24459292587776 -0.6061805177063161 1.4135879076806417
C 5.009210867921066 -1.8336907950119632 0.9507677767127736
H 7.656178987286919 3.412240721137046 -1.012590860226299
H 8.297219270888052 2.1429033110898805 -2.146652189717504
H 6.129169521225787 1.1523646205266176 -1.7744439706719213
H 6.77249982578441 1.7802391585530486 1.1661423711962813
H 4.510571376657478 0.26409493595151845 -0.3634941426177781
H 4.36889339013732 1.7450089096541284 2.312655681387863
H 2.2819681867243427 0.2972998052578026 2.3819096218232425
H 2.2168867212540397 -1.305329297290958 -1.0456236657300682
H 0.8565414397320213 0.9168338057173335 -2.3293104209906264
H -1.1834107905899722 1.853683061665116 0.729375678615935
H -2.403078345351669 0.6747480565620254 -1.937392869598092
H -4.030288094450035 -2.260510596340727 -3.2983516323770274
H -2.938712671582583 -2.7570348249377705 -1.9523045938277697
H -4.721073118025045 -2.8387463180798815 -1.7723530727892765
H -7.099433338867827 -0.6152407245663201 -0.5170517357462353
H -6.817608664602777 1.1060066396538188 -0.18855029843025517
H -5.564922214911813 1.957724880072825 -3.4238907570210797
H -7.262884919750768 1.4808276535680067 -3.6095372591032366
H -4.5938575879307 -1.4561992193221738 0.4995210612236466
H -3.9329297738630298 -2.1798635702060247 2.020971396296031
H -3.2312960871400436 -2.729519701890557 0.493449956678728
H -2.4287850500840524 -1.4253174912358122 3.090496601467641
H -1.4027034714563056 1.2009237685122176 2.942834768410803
H -0.12227495557902435 0.2430875556315597 2.1332302363725884
H -0.6028729098062493 -0.14153020524261087 3.8158218367784773
H 5.618512107052282 -0.5230838826255505 2.4284676079228786
H 4.638865706155071 -1.940119908425486 -0.05081167149913275
H 5.179316608513707 -2.7177627094508288 1.5505774859109087
