26

C 4.415213769002412 -0.752459717584945 0.24683644702351928
C 3.3964448000150513 -0.3812244484177933 -0.8116901183157084
C 2.5449751627957684 0.7410062444927039 -0.40231457539515536
C 1.2601727603848134 0.6753549769834767 -0.29118049093831444
C 0.5235329139549476 -0.5362610495749804 -0.5654047473281678
C -0.8129975333675826 -0.541509301327217 -0.4318712386020394
C -1.5024437545801341 0.7249981308339831 0.002242726468843819
C -2.5736820222001535 1.0010633791180656 -1.014223422423626
C -2.052090932895504 0.5020914860186836 1.3834882797467416
C -3.043584139032975 -0.6250409171198366 1.4545600059917512
H 4.363754282375776 -1.8202443129138735 0.5411808334998872
H 5.413676371308105 -0.4388019928309736 -0.06784262078795518
H 3.9418685608728428 -0.06588770868141743 -1.7391559616306298
H 2.8875343368266115 -1.310669785610046 -1.0809545347223737
H 3.0508208408700943 1.6809329799509625 -0.18288709991127128
H 0.6997545592464998 1.5486928663322774 0.016929622544002758
H 0.9445178386972056 -1.4775116843512286 -0.8783676718031124
H -1.3783266887129648 -1.4155249498661489 -0.6262530698865374
H -2.917490112863031 0.0344925899049894 -1.455120985454812
H -3.4121251657876903 1.5918962968542134 -0.6364291214378082
H -2.117979684928933 1.5702398170964573 -1.8665727370057794
H -2.4430455095718804 1.425297415297783 1.8292612637671248
H -1.1791433181305702 0.1955942205524726 2.0243488821414553
H -2.617079542730413 -1.5545281992882192 1.8883523036626488
H -3.53342473673432 -0.8492434427645921 0.4921709040388208
H -3.858853054814014 -0.3137551722439221 2.1708971267585753
