15

C -1.1760639844527245 0.9661205797161075 1.169869799449212
C -0.6667841643641638 0.5205511475710376 -0.1985156263447058
C -1.1454075427847419 -0.8011853310943399 -0.6461584609889778
C 0.22958678058545434 -1.2252421598895988 -0.550551860033595
C 0.6488011704386039 -0.07687883950924596 -0.16109920275896247
C 2.0562355625476427 0.3796463970573454 0.18790081785059007
H -1.451993914195811 0.03189744682352175 1.7144266566951367
H -2.0840111421506444 1.5646746944647567 0.9772137839208693
H -0.7941580699335588 1.3113220683443336 -0.9808823406480904
H -1.8575292190479042 -1.2892761557301244 0.10483612980014428
H -1.6011579912281935 -0.801418101521727 -1.6735926915460027
H 0.7421035782690837 -2.182592582629753 -0.7403289175876759
H 2.776996555644592 -0.0624683283915522 -0.49696050144830184
H 2.2511664293964513 0.18502608860276523 1.251124476874105
H 2.0722159512758007 1.4798230761865057 0.04271793676620597
