42

C 7.243472785261431 -0.4135649192121783 -0.9377829085766518
C 6.278050776117316 -1.4395772667771987 -1.3086231919432174
C 5.277592649665511 -1.6137970538197373 -0.46940082936379696
C 4.282671971468378 -1.6621359324649176 0.37730402562056975
C 3.1863321136837537 -0.7667845522320809 0.09017476968071352
C 3.203455845474665 0.49048417398926614 -0.2647461547756538
C 1.8353883499596468 0.9870888299891687 -0.4458295156995259
C 1.5429883421923878 2.0821740675866196 0.5672872434776445
C 0.20511039222387703 2.6192566888732385 0.41503740151541574
C -0.1376440692276736 3.8572272037831064 0.7747297428763583
C 0.9717994489145146 -0.20777000704168 -0.15785378736351113
C -0.4568713646452338 -0.1327617596909568 -0.2643429179685592
C -1.3325187686517213 -1.0695095539991515 -0.06410779401438699
C -0.99650198206374 -2.4331786912575954 0.3243129036329382
C -2.7326531661930984 -0.6838811317212407 -0.251410735459468
C -3.75215566087899 -1.4556478918689124 -0.10372332271490825
C -5.152312682581606 -0.8936067668197895 -0.33867751178779365
C -5.010227481719185 0.38252928997477303 -1.0176499199640636
C -6.10774281610746 1.0212611437977088 -1.3241873207450043
C -7.267702559221432 1.5849546033030764 -1.5884082987509642
C 1.7794059267650126 -1.1905983437094674 0.1506474225320798
H 6.771964650093051 0.5866624933462338 -1.135240935716969
H 7.4720391059024625 -0.5114930912638181 0.14629958076389696
H 6.236692239941352 -2.078645563784235 -2.146014895787586
H 4.410038613744769 -2.3478575274763047 1.1614554750497943
H 4.117067177903101 1.095066552003817 -0.40859996650810404
H 1.5998308573953521 1.3775246407617021 -1.4387523429365447
H 2.2787025391954345 2.8975912396513204 0.3501873101786584
H 1.665899655797512 1.687325275329912 1.590574258738308
H 0.5856772023648682 4.532215476684465 1.2068232730807857
H -1.1826342020986633 4.12955608499373 0.6024773477316254
H -0.8746699331051019 0.8427437393773771 -0.577229861460702
H -0.552379189000423 -2.540195926958021 1.3388334781620008
H -1.9466441711885833 -3.047744418119991 0.4162295197838954
H -0.4368068722790406 -2.985284747536293 -0.4683755167904636
H -3.748332615116681 -2.504135833849267 0.18050317585933584
H -5.657559134568874 -0.7891174334714148 0.6363048317964431
H -5.637628448175047 -1.6462908621704089 -1.0023589565144464
H -4.121901392329562 0.8923746278982103 -1.3126112070646523
H -7.6800651363247905 1.3227184639331697 -2.5281464487661776
H -7.631284917751209 2.2228544613501175 -0.8258938004598164
H 1.472055919164302 -2.1980297813821887 0.42141047619903926
