22

C 5.063595240734831 -0.3284784601102933 -0.7127371130106925
C 4.0164199429053955 -0.16258036316929256 0.29530305234364473
C 2.8073366902905303 -0.4975094779530751 -0.07800224042669036
C 1.6110621376952736 -0.7768997937632777 -0.5709890209253662
C 0.943622158621483 0.3108820717739038 -1.202327101323693
C -0.20011365692869654 0.7534540916312097 -0.7043302177976177
C -0.825061465178775 0.15458207065195803 0.502161926310321
C -2.2668143288958826 0.29719232086223274 0.56313568895567
C -2.90588484857082 1.531329241852369 0.8827885805795265
C -2.976534306839004 -0.7574310659948152 0.31270403929974644
C -3.715576491557205 -1.8034541373900586 0.14164385490631456
H 5.744757666115111 -1.1504230941181066 -0.36078040391939714
H 5.6162684976642705 0.6109329260072935 -0.9182903621675444
H 4.076675650674548 0.189352275384624 1.2885339628606205
H 1.3287995282426306 -1.7771890571849147 -0.42089919652256047
H -0.7174601388671132 1.5747779330727167 -1.1694146898655853
H -0.2920066700484256 0.43924389783599804 1.4270003221944236
H -3.9985081479883164 1.488686296889854 1.071305482658097
H -2.80775452018597 2.2287571681387925 -0.002772874510949121
H -2.479428623412834 2.112249916265231 1.7284187356387068
H -4.0439672264891415 -2.022238358838164 -0.8226729065412779
H -3.9794270879820512 -2.4152364018440404 0.9425444017603521
