27

C 6.2004142312248085 0.4178268897242629 0.4236012906820443
C 4.926051085615008 -0.07311511731058434 0.933166214572295
C 3.8457346965616166 0.3807628599526256 0.33735931308050204
C 2.838398139655386 0.8133844879348668 -0.40417319153857567
C 2.507335421520295 0.017700988809109492 -1.535032117893651
C 1.4189887619515504 -0.726511960875611 -1.4238199377213092
C 0.28398039262267616 -1.3638585846898603 -1.240926927974803
C -0.8920647964361651 -0.6405571370794274 -1.6178172813595957
C -1.5306398466725912 0.08765412870491858 -0.7165338069506678
C -1.9108225518214965 0.6785122271948615 0.3989248107254225
C -2.7680274149582775 -0.07280512309823413 1.320197246577353
C -4.214657443385025 0.3319091504841834 1.0146960962797937
C -4.538056209164139 -0.007864341641421795 -0.4048728445609467
H 6.281804388832396 0.41775271137685194 -0.6817973755531668
H 7.010418765414122 -0.2826376357699791 0.7826890593425686
H 4.71826350420444 -0.748606415455523 1.7175343702284844
H 2.4223376531881113 1.710110652086618 -0.03333663737234453
H 2.979262728444867 -0.0929891988481456 -2.4729970132046435
H 0.3972874498981148 -2.3304187920006605 -0.8361065937168415
H -1.5824745579060828 1.6736652780354815 0.5941923265682085
H -2.7039964064675206 -1.1691937918507236 1.1751761937195604
H -2.5319294042526304 0.11105385676755432 2.3881606857859876
H -4.864810960249726 -0.26073634275795754 1.7091680719507514
H -4.398545789348691 1.3859533798177048 1.2301089849740792
H -4.134393128692288 -1.0324915999216413 -0.6073112085453097
H -5.647326517282784 0.0328090613737604 -0.5525723374276722
H -4.112532192495379 0.7426903690369665 -1.0958028592326898
