15

C 2.676386620088122 0.2702248439799945 0.7295825571860263
C 1.2556049278359642 -0.12761582472901614 0.415148646403426
C 0.6976051000996547 0.231280128856615 -0.7319765057974063
C -0.6982307915645689 -0.16592307180917504 -1.0281333887181852
C -1.8096149952797485 0.5238299212489754 -0.3353527636268336
C -1.4761450138351855 -0.9546218938070358 -0.0633126369129617
H 3.2496494189087333 0.09956097188736342 -0.19402154162101137
H 2.6374671171505715 1.3413149291705013 1.0151029356100587
H 0.7641716538112991 -0.7044097679567582 1.1783660185480338
H 1.2502521200161696 0.8126629267357184 -1.4573153576534226
H -0.8341265067813515 -0.4347497704288121 -2.1148830479772087
H -2.7877121021386957 0.6685774885067177 -0.7906138470684554
H -1.5267556973708243 1.274953776301286 0.40338174680864286
H -2.1888889718317226 -1.7175490329435672 -0.48296487737063043
H -1.2096628791084207 -1.117535625012837 0.9844186826951142
