27

C -3.906389977883844 0.7860146268911263 -0.4727995867676633
C -3.429042248403631 -0.5025769150423144 0.19632936028963974
C -2.429619675115376 -1.146254647575032 -0.7233556838333651
C -1.2359135069375882 -0.28866418159307494 -1.005786998453569
C -0.460658811025701 0.07872591654904666 0.18826411337734542
C -0.7409663708781105 1.0479619142974008 1.0237737908208369
C 0.2719172455010184 1.0768338371401713 2.065067059964743
C 1.1651657282173753 0.1274698846535448 1.8624542418758387
C 0.7617141537287727 -0.5870291277858181 0.6393270575839964
C 1.8116705895758387 -0.3752994262986837 -0.38228489977490865
C 3.07815256395767 -0.19907150808961308 -0.07792320307250687
C 4.1185259398563465 0.009552553235482585 -1.0674671256439074
C 5.378125482935388 0.18619466972840693 -0.7913491005550995
H -4.633873383833734 0.577455071092067 -1.2536209154246702
H -4.174999831168519 1.5612875414243776 0.24519392653314065
H -4.328575141799332 -1.1465517193918544 0.2742429868749704
H -3.0658449910464802 -0.30331182533781087 1.2016669014387937
H -2.1612017746614907 -2.1371184410758577 -0.2884480188638863
H -2.942393719639968 -1.3621069015666603 -1.6830652834591062
H -0.6222585707208623 -0.8111976770957771 -1.7683387215200883
H -1.595001493504565 1.754582061016703 0.9863336470126832
H 0.3180663072099746 1.7728660680328236 2.9113604291201405
H 2.0416064182504234 -0.07977282050898139 2.496456273087119
H 1.5261754865657657 -0.3651163775085205 -1.4195856023517373
H 3.411003583561619 -0.2026275722120999 0.9699250102777043
H 5.77693737199786 0.1950761093883695 0.20926398174977023
H 6.067678625261448 0.33267888763253156 -1.6062416959438026
