23

C -1.9708017203743673 1.330895528158228 0.8693082450149715
C -1.359011235945231 -0.024354654587635704 1.1340627128386955
C -2.489055732777402 -1.0359070082802568 0.8810001123405459
C -2.5506659253393402 -0.9596287018241654 -0.623861690671581
C -1.362029288516556 -0.6208082080806278 -1.101230956783598
C -0.41506651174653025 -0.44358982657694923 0.028795628531698994
C 0.6381128077889808 0.5831078583211605 -0.2504520656322819
C 1.507842905685555 0.0908655388105972 -1.3364524162924396
C 2.799621985811236 -0.11727468433723338 -1.1171260716630236
C 3.450423420452122 0.12100027241664044 0.19563582086059175
H -1.237109631372655 2.1381646412839954 0.7876043790094952
H -2.7761605855170512 1.506396672048583 1.5828236438133432
H -0.9370313263642923 -0.13429773163576741 2.131691616122526
H -2.176222695311224 -2.045525405068733 1.215901750636795
H -3.4659933234863467 -1.1655353267438966 -1.1530020248836828
H -1.0923865476161763 -0.48691910361785773 -2.138568813296441
H 0.029670350994191363 -1.4145744046369977 0.3368851666493148
H 1.1821876907629818 0.8063057950222066 0.6593869493019373
H 0.13640306456013337 1.505955972861777 -0.5968334148804684
H 1.1338026250506397 -0.11475761645186228 -2.331762138163091
H 3.680109980240635 1.2042318992300658 0.33748449516918533
H 2.8586345462400518 -0.2919836374885818 1.0397572364516727
H 4.414725146780693 -0.43176786882261403 0.1856922484025358
