37

C -5.460683391548391 0.41277810862338615 -0.9224544100156963
C -5.071599575420989 -1.0457081492099998 -0.8406201328554895
C -4.937233663234298 -1.5171620316595522 0.5656147945822594
C -3.8067647249920706 -2.004661403912928 1.055490819858207
C -2.579571192573749 -2.1113128144172784 0.20978452803243197
C -1.411128073215465 -1.5897909880100554 0.8862589093663544
C -1.031486191052174 -0.3799902866805444 0.5040686545165365
C -0.7490250731020232 0.8107790886699489 0.06418670453689203
C -1.3680884353484548 1.891683140260577 0.7489433533148582
C -1.1199909389690603 3.1302673694528185 0.34784310504042903
C 0.14128040247461052 0.8401050068703615 -1.0446391016118675
C 1.3749294460380774 1.2549023050701518 -0.787743967595945
C 2.5659384601447712 1.6421356729271277 -0.41701954473059594
C 3.4275582743993462 0.5714304395401976 0.02517835206191544
C 4.395299652541052 0.15505334013879363 -0.7630621430226011
C 5.266044269097782 -0.941726526278243 -0.2921015329655523
C 6.6882392868345715 -0.3873717770191965 -0.2595200762443965
H -4.655128630001969 1.0775201356833406 -0.5582965979837348
H -6.444617143433893 0.6103852500775827 -0.47831782886823354
H -5.84432452594488 -1.6522143211655052 -1.3191888968590042
H -4.1264290300012165 -1.208311598310317 -1.3613425886017756
H -5.800070873133268 -1.4530686208424273 1.1957781071100206
H -3.7661358763665245 -2.3313189017995666 2.0808089038847846
H -2.4572471309048796 -3.126153933571624 -0.21924363325542562
H -0.79172882049837 -1.984910601973866 1.6345074072115457
H -2.0228440069548053 1.7349941587329307 1.5719301622948896
H -0.46189467385867994 3.3515958674758526 -0.48392923359578466
H -1.5934591783599765 3.941363584918015 0.8727128133803892
H 0.010647411768457009 0.589562948041972 -2.0569479650060956
H 2.7518412043178757 2.6753600714853927 -0.4830039496822602
H 3.249989643050096 0.14285871250884535 0.9950862046949965
H 4.536959879923983 0.625233365792317 -1.746553351029936
H 5.177704144403332 -1.7632884366501997 -1.032396997574774
H 4.925510710975378 -1.2971466209690627 0.6757916291593181
H 6.682316508842141 0.5433790403934495 0.3357367526949018
H 6.929292981548165 -0.10163700186178508 -1.2966918772329046
H 7.375898872555637 -1.1056135923309711 0.1856231629598404
