53

C -6.433170358261159 2.5661550493890153 0.6126455775554965
C -4.932726204355113 2.833071118397669 0.5820274783493146
C -4.54194933142758 3.9111555171168098 1.198961877276086
C -4.147483984828001 1.8722608743981473 -0.11586955076293769
C -2.8894764632537333 1.7500955731354297 -0.3558946595211467
C -1.84642054992681 2.700070850571653 0.09646507902829829
C -2.441209545793342 0.5509284980976042 -1.157487796815481
C -1.5075484855266843 -0.3246824446510916 -0.4656369300337095
C -0.16718788272322166 -0.5875819128633605 0.05930484439273847
C 0.1666450898739153 -1.70189270500757 0.6834206880855044
C 1.4954248805490273 -1.8808252668003513 1.1654099140035221
C 2.461274822389748 -1.6745347308746021 0.28856714450733606
C 3.348266738832663 -1.333752423769222 -0.6287670530240455
C 3.725052238026533 0.07023978673149446 -0.6622195965998473
C 4.967669406321365 0.2317664040847636 0.23208085076244378
C 6.011995208737485 -0.6441102553563168 -0.3602822572933409
C 7.298589471159965 -0.6794219194562949 0.3353496434192419
C 8.375232364588387 -1.0779198519275663 -0.3099660180268718
C 5.2700279802271055 1.660306974008933 0.280894712797943
C 6.401522654131278 2.1564959365192635 -0.17828816140030285
C -2.772920460477499 -0.7988855287043525 -0.6213440273270946
C -3.73521265788844 -1.8789465083179624 -0.40102493974418685
C -3.330987773753291 -3.1189097644687873 0.3042738944823852
C -4.964430180191351 -1.7114471862169562 -0.8481505842222943
C -5.950699981904236 -2.815144344496743 -0.6239123054990402
H -6.518956673712411 1.5301901772042592 0.9802411842428194
H -6.7501497190180615 2.6621761903262002 -0.4417825616482121
H -3.546620320059302 4.277011518413394 1.2956300267121064
H -5.302019944253252 4.540351739252861 1.6880943519040859
H -1.7677205771747602 2.741172182598542 1.1859152224443472
H -0.8263072176461335 2.342216161602882 -0.2545079536380529
H -1.9580115089159398 3.7098712279722315 -0.34506597485198987
H -2.3579044380521803 0.6220224029379695 -2.2412999728536445
H 0.5719147968618008 0.2162952514936485 -0.09756803238486789
H -0.5765703104998311 -2.4604247734688838 0.8176281368784281
H 1.860475424207248 -2.1531359385172104 2.116700695347375
H 3.659186162196435 -2.15126399389858 -1.2171975348579729
H 2.909176883446612 0.7237294476716813 -0.29676438484895645
H 4.709999071498727 -0.1879301911086757 1.2431187522638818
H 6.096866488617518 -0.4042896414615111 -1.4416350577139254
H 7.370137530938962 -0.3842943304025769 1.36239962602688
H 8.382766353692258 -1.3905513094607542 -1.3452770473881324
H 9.355491572211402 -1.1139138940968105 0.18980013436172816
H 4.545632922854727 2.340623725282371 0.7069629230902696
H 6.622489943668944 3.240249933807818 -0.1371361769479648
H 7.18143143936856 1.5689847595898345 -0.6200383152912418
H -2.5690430815384304 -3.6542037757602794 -0.3210936372650017
H -4.224431953258034 -3.753430017512309 0.4683435422573494
H -2.8853856153701107 -2.8861484491653213 1.3098718804154952
H -5.251459048238676 -0.7997779155776826 -1.3634060220566775
H -6.905360578671765 -2.518531404558502 -1.1309876759032784
H -6.09894717843314 -2.959853255343016 0.4642019012737568
H -5.586957419249036 -3.771637567363345 -1.043615024271479
