24

C -1.9910739035774407 -1.9240977428660908 -0.7835876907356444
C -1.9644303703608368 -0.4174853701051564 -0.5990959560371403
C -0.6437571663053104 -0.0033872241076288072 0.03064905803991752
C 0.2710688676780068 -0.8642452418119119 0.3353169584265877
C 1.5600812975118332 -0.5279407810262349 0.9431273525137326
C 2.7143014065944167 -0.9309019926118282 0.06995136164729189
C 3.605394176196664 -0.08063483485062811 -0.40436401717532977
C -0.5019998384313608 1.4436762739875026 0.24948060055888707
C -1.6063464567262997 1.9278639250928578 1.2008073718411816
H -3.0194032380420537 -2.176256497869342 -1.1143875927386464
H -1.9117998230259265 -2.3554670068241585 0.25719764727496164
H -2.8112358370461683 -0.15023908969023245 0.061124623631734244
H -2.1149384924361745 0.07774915051931013 -1.5646841464130448
H 0.08194300671176376 -1.9185900605559418 0.13037764293738538
H 1.7285600678879756 0.5198247638973666 1.1936296366824044
H 1.6828399455658278 -1.0680346950332333 1.9451183588541368
H 2.805155646168185 -1.9733024837289426 -0.17267693231110032
H 3.5360817040791415 0.9890926906012297 -0.1720423748804212
H 4.434125617011614 -0.3660521935751393 -1.030649679999265
H 0.46676278821357226 1.821873908902671 0.533845934651084
H -0.7115519619364179 1.913216659999758 -0.7696865177780994
H -1.1253654913407893 2.6138266257079246 1.9122717408209116
H -2.4231628809017094 2.385073257234309 0.620158375931378
H -2.061249063488502 1.0644379587135142 1.7446966850132182
