26

C -4.014312226203138 1.9512394834746662 0.5577323412900412
C -4.401987530300624 0.5683622811496171 0.7944300559329907
C -3.9597310516534616 -0.3069908586684835 -0.08619287260674761
C -3.406117432967558 -1.1167594923440958 -0.9598210607407811
C -2.097999827730493 -1.5997465789659575 -0.6082196947551443
C -1.0977319854483214 -0.8614824274935001 -0.22489546150361808
C 0.17687375271119424 -1.4707373457992885 0.1033701974015883
C 1.2010036996317826 -0.7318989529148593 0.49408595552041185
C 2.4894438355804334 -1.2547926152573283 0.8355227139908944
C 3.446669846221748 -1.0108113738057063 -0.03225290411964639
C 4.377429885922446 -0.6074163503632638 -0.8770118431822238
C 4.996693279266334 0.6458731807123145 -0.6022376671528831
C 4.315269897802354 1.683319630213875 -0.2067524364326313
C 3.3687506790390147 2.496864341202994 0.1637148964510003
H -3.0622103685945006 2.242808677861413 0.9990101205420269
H -4.833701972373618 2.678409668485825 0.6816755792839361
H -4.983071733457565 0.13364613064533298 1.559174766710611
H -3.9998320499875883 -1.3025372749198345 -1.8064142279671676
H -1.9597376082121074 -2.6828517393391933 -0.6777203495738011
H -1.2036677719919138 0.20556791400546742 -0.1471280330472691
H 0.31033602697198154 -2.561131018250694 0.031640088082981556
H 1.0495459436222274 0.33628244842657007 0.5579924200659402
H 2.804526570413969 -1.8085901209240358 1.6769726983187403
H 4.5290595855971265 -1.2966832272139015 -1.6582744856542369
H 2.9016045927292673 3.1048126573020016 -0.5816378002038629
H 3.0528939634110577 2.5652429627799274 1.181384287111492
