18

C 1.7336261447387002 1.146535629212015 -0.34585454508437924
C 1.2673990319403476 0.21026557248432265 0.7652600373301339
C 0.9163313026728086 -1.1003382749601622 0.12129809656516546
C -0.14398044315370456 -0.9417246396463343 -0.8701449449348962
C -1.4919727003327847 -0.5317573714903275 -0.51599872065995
C -1.7545218176406625 0.7958996614867454 0.07019173745920318
H 2.8047463021742356 1.003548790504795 -0.5568236017406277
H 1.6282947449682847 2.172915707913548 0.06570042058617007
H 0.39579280327657035 0.5959796130172501 1.3124881787426912
H 2.1058586260579233 0.026972380437274096 1.483712982634942
H 0.7228314770395837 -1.8995805101571184 0.8846281670192547
H 1.8649600347940245 -1.4808051954436061 -0.3797970208615484
H -0.1140560054866894 -1.6688609375785535 -1.67726465004445
H -2.031152082008055 -1.2768463374844816 0.16187650152513397
H -2.1164916509078555 -0.6159314952778961 -1.4693505561528177
H -1.9259341998764297 0.7988170339788286 1.188673673322041
H -2.7736595445720886 1.1455699979149905 -0.31402806634965597
H -1.088072023684321 1.6193403750887172 -0.21556065275522704
