16

C 2.2240104996642 1.065604546384597 -0.779801439814542
C 2.2125360967043646 -0.16382167915130316 0.05370023266577853
C 1.2412927404945593 -1.033252373888193 0.065657808438039
C 0.0005585470990612893 -0.9928245148649935 -0.7058945844266501
C -1.1402528859310115 -1.086282658829902 0.25135244142911506
C -2.0404632591184217 -0.1096052049111828 0.32293921428426886
C -1.9701957257410365 1.1072381221607093 -0.524374366767027
H 1.5677462227511854 0.9972238050136022 -1.6629183990151906
H 3.2801521979046675 1.299891165482705 -1.0733852021569814
H 3.0706747454446677 -0.3393842944229876 0.6882387632345149
H -0.1289804385964874 -0.08489552140165604 -1.32848214784345
H -0.11736297689910022 -1.8692649872966962 -1.3989858427552282
H -1.2185787157227383 -1.9604581892016277 0.8819425283912328
H -2.8593168093474866 -0.20286742716703235 1.0270801405793542
H -2.9593882511712986 1.6001546587108182 -0.5664400393736695
H -1.162431987535046 1.7725445533830593 -0.19006131430814388
