37

C 5.261591545851663 -0.9957210159025978 -0.11560438532323336
C 4.565540308081671 -0.5591090087410034 1.112835216112722
C 3.4140625147429278 0.08071315720970546 1.0297103608421188
C 2.833172348908302 0.3561813799927377 -0.2254188578354185
C 1.5471539555529565 0.052307165873634084 -0.3601744313631462
C 0.32016856179969855 -0.32392170677839954 -0.2858093726142883
C 0.0923382011816853 -1.6905319980718734 -0.6704871731494457
C -1.088517549059936 -2.32062740020519 -0.4917544441195921
C -2.384085784071752 -1.9510681906947556 0.06057830499517768
C -2.4695180716858554 -0.8068470789560602 0.9500239395997646
C -1.7494382821676597 0.30516534202135653 1.051384207156316
C -0.5835442107372473 0.6596060999298164 0.19368695121248197
C -0.4311953323522599 1.9114272863184325 -0.1372199608620064
C 0.6537374665932654 2.4288786165110787 -1.0180033256401686
C -1.3713774019278475 2.9138627783434257 0.3327366577424827
C -1.2712768558679193 4.171575525287256 0.06113622041618385
C -3.206240447727198 -3.1712806664262354 0.5717163655344092
C -3.6027360896047083 -2.4482455205417937 -0.637305978326265
H 5.846754393433639 -0.16046437017694534 -0.5822454429367063
H 4.5750411301811384 -1.363521932993004 -0.8974517026269664
H 5.018867826532932 -0.7752223399731778 2.0635522785888716
H 2.893488918384763 0.4066574203919842 1.9323804721076776
H 3.1506228162068237 0.7551287698521642 -1.1310353192813813
H 0.8867098166729492 -2.2450848769117773 -1.120127024783829
H -1.0259173488657833 -3.3425056373778395 -0.8570711125637837
H -3.2750127834617 -0.817141925829927 1.7055714127422692
H -2.014507872858342 1.0042540519863665 1.8164310796788041
H 1.5134621836425959 2.83050496839024 -0.4994633031424556
H 0.2638525490073834 3.3087226837098083 -1.63728326012356
H 0.8943443255578337 1.6993646193640113 -1.821751377893586
H -2.2068387135785996 2.59998235241203 0.9281352854709249
H -2.0198340130516637 4.875773200796709 0.44914329943317466
H -0.5008346890078362 4.616215287954338 -0.5155292104936623
H -2.7365432446020574 -4.169169816734233 0.4905131336331149
H -3.8137138571589095 -3.0475735279939364 1.4684571741153163
H -3.4815510531554925 -2.978758294782437 -1.6038910599824123
H -4.498225261388869 -1.8095253972538439 -0.585224125673296
