22

C 2.5446591323733334 0.7829645198362499 0.3349222591251817
C 2.348341398085569 -0.6391813020274141 -0.14637753129886183
C 0.9511291095292579 -0.700623747755497 -0.7663171931170873
C -0.0014964358964831665 -0.32999585319724795 0.3264144025710876
C -1.4369091323925092 -0.3294653728578937 -0.07690794392978238
C -2.238100355645056 0.07154062240343757 1.1702436487650447
C -1.6850805222954985 0.7309354559418751 -1.1171469311905768
H 3.534464232866037 0.8077956168773196 0.8536276726176867
H 2.5889863472360335 1.4529226279550955 -0.5472235884996973
H 2.2880666244809915 -1.2797021316598178 0.7625100565454205
H 3.1233705711369115 -0.968216936399366 -0.8498451744633795
H 0.967391019201629 0.08898817527600722 -1.5733812056388052
H 0.7979531488593792 -1.6973979113998805 -1.1823642458345667
H 0.2539921148922056 0.7221436591993909 0.6350512256791748
H 0.16823491238000715 -1.0395352956002974 1.1697303812406425
H -1.8090208775449141 -1.2965615509420707 -0.42733259351126807
H -3.2766605947570544 0.3053940924511459 0.9348763998295454
H -2.129949269436656 -0.7438650044200702 1.930155895180872
H -1.6817381780172171 0.9455084023210594 1.6008852337204873
H -2.7834595690588277 0.7754936965256095 -1.3650934955697915
H -1.4543686053724423 1.7437992357967795 -0.7036580384222727
H -1.0698050706247109 0.5970590016755802 -2.0167200306844233
