19

C 4.098936211205398 -0.7422746789860074 -0.041770834981930946
C 2.607957200549289 -0.44564969656446435 -0.10753102006888493
C 2.2623202575291232 0.6764759206047453 -0.5579375850433006
C 1.0338599576664638 1.3314973344107999 -0.7817559713569299
C -0.13527873065853127 0.8441532382711865 -0.5358708886683512
C -0.4368850442008182 -0.4587422670043418 0.013913435877626107
C -1.9819723684568442 -0.5715363567714986 0.09051948712290186
C -2.454186917588334 0.5118570608055558 0.9658867183132974
C -3.7162650722673565 0.7563174957440878 1.2428240089649187
H 4.394512531890317 -1.00920526335024 -1.0761592579487782
H 4.615289273967432 0.17634619563626122 0.31620124870871447
H 2.0074756396815876 -1.2508385304931027 0.2479711391858766
H 1.0557977575858797 2.391440196400292 -1.220497128506856
H -0.07315270723082863 -0.6341530802716042 1.048068679842901
H -0.1350862795797267 -1.3245613248851207 -0.6217219837649754
H -2.2875727383185036 -1.5679937854880501 0.4156328568153544
H -2.392020191318369 -0.41063605751433574 -0.9254642883281728
H -4.495574753272341 0.1522142154708819 0.826373654733138
H -3.968154027184107 1.5752893839849809 1.8973183006486543
