16

C -0.560590844021747 -0.45738117569029313 1.3987659526110718
C 0.03765225377570508 -0.06274697715630306 0.03972922463070109
C 1.5179781718931922 -0.20176329711863406 0.1607378924673084
C -0.5710014545931469 -1.0282471966443458 -0.9648965445363755
C -0.423544314767988 1.3448163388152947 -0.2296638778930463
H -0.20077091188697044 0.23603422266590735 2.1685593450828837
H -1.6641267092434469 -0.4120046382220025 1.2367294810873786
H 2.0612831621342393 0.7234836292004377 -0.1405778861653905
H 1.9416549052189682 -1.0136297270387362 -0.4709893239223932
H 1.85180491187053 -0.4283020042591648 1.208672590030306
H -0.5389455879693185 -0.6509174406813217 -1.9949199083226086
H -0.06567746181343614 -2.0112704687407685 -0.8323483265225042
H -1.6424180796406482 -1.217723306887347 -0.6770157760602327
H -0.6655929794219342 1.8939460366289855 0.7212064272077023
H 0.31197946287982004 1.9299829774056252 -0.8200449512684466
H -1.3896845244138183 1.3557230277226662 -0.8039443184263497
