24

C -3.1567701835306505 0.4987933669063786 -0.657527340872602
C -2.0137968859589703 -0.22209222582544844 0.08014482278482465
C -1.4287689971730557 0.7377412891380398 1.025725737889582
C 0.04365804064972579 0.6398847681603033 1.1961853470176318
C 0.8202987225817149 -0.16453557549292164 0.4901067010000696
C 2.2775716028978388 -0.15940089587679532 0.7666272694742008
C 2.9634285550162556 0.2482888344212617 -0.5354859326171686
C 0.29128620754606943 -1.04988833355749 -0.5444750205729177
C -1.1306979909526402 -0.8430794777399668 -0.9186651405636205
H -3.4871452186062664 1.3802016799425194 -0.07456529268622272
H -2.8100345959143116 0.8776582783747654 -1.6374062399627367
H -2.5411142549106605 -1.0306374951482087 0.6681013788790606
H -1.8630898642729479 0.6304593006689627 2.059964937471608
H -1.6388477431041362 1.8043336920108581 0.7440209278537699
H 0.47525642318491595 1.2933021365446233 1.9673587315007686
H 2.650851053233361 -1.136515083996694 1.1247879135359222
H 2.4993699256793205 0.5898985326281618 1.5466513768696581
H 2.2428352351487564 0.6854599321231178 -1.2571141025609192
H 3.727310810015767 1.020458981286196 -0.3103283100254027
H 3.432642615167679 -0.6485988966451957 -0.9913448888885875
H 0.467082404177548 -2.1135718707695954 -0.21374144515661125
H 0.9242323019695767 -0.9375115794481197 -1.4553277016052697
H -1.5513236297132886 -1.8473676325339465 -1.196132877968643
H -1.1942345331317488 -0.25328172517085734 -1.8775608507964285
