18

C 2.8634607151433418 0.7904062758397039 -0.953040648912017
C 2.617653714736446 -0.018709389222125842 0.2949746205122183
C 1.2647574967779946 0.32367695425149723 0.9204596082789249
C 0.14734997663628377 0.0584567339860495 0.007908204129196026
C -0.7532758839398145 -0.8880248521405412 0.2204834168879858
C -1.8454637966322494 -1.1550079919805043 -0.66141890946527
C -2.9051426937555416 -0.374790194810946 -0.5311199613160357
C -3.9116224390193186 0.42804824770604827 -0.32701279008073075
H 3.2929511761369166 1.7793680136369103 -0.7006748415059827
H 1.9601821975093674 0.9087508100351288 -1.5745395643714015
H 3.4026189402385434 0.1815284790434239 1.0291692287305458
H 2.5438092012216997 -1.0896033874036992 -0.007677903175020624
H 1.15175786744858 -0.34418085981000407 1.8042104657751186
H 1.2750520198288608 1.363845732609802 1.2815335753494947
H -0.6367211953512024 -1.4798241041331248 1.1172038952137817
H -1.9482481208233549 -1.8863484365905085 -1.414449361881839
H -3.893959640196999 1.3174651775995967 -0.896477429497835
H -4.625159535959556 0.08494279138329643 0.3904683953288559
