21

C -1.8901389346517457 1.2537020811391761 -0.39768262931537046
C -2.2209455637795124 -0.23662512020872709 -0.44946301784201326
C -1.0082870346362618 -0.9671546417926585 0.06505588870785349
C -0.7894052200003548 -0.4761073219083244 1.47730343253552
C 0.4919672853216803 -0.23125291417296873 1.6916575061320083
C 1.2374034485209127 -0.527913180867409 0.4750006884128391
C 2.456682360157132 0.24426054591276827 0.27696783208810677
C 3.0732613204705053 0.23961273114719617 -0.8903684571929277
C 0.24248764930208094 -0.42144976076140184 -0.6339185140290811
H -2.4913013017499637 1.7956473253166032 0.3350887674913749
H -1.8263693290586864 1.701237811147759 -1.3903362585537964
H -3.077253789844684 -0.4244485737716032 0.2350886409114338
H -2.4844610353454564 -0.5305092262382443 -1.4883022138429454
H -1.0774101125941606 -2.052169796153194 0.009021665179046724
H -1.6196068458718815 -0.35836831280115367 2.1847785921253506
H 0.8749055598976927 0.1403178214757179 2.667243514612505
H 2.88974066496073 0.8379742362055802 1.069395846491124
H 2.653852807669296 -0.34903100866848474 -1.6947400215107797
H 3.9988627619854835 0.8159284607875067 -1.0672173146032942
H 0.04542267024783938 0.6049874809991984 -0.9773951405265012
H 0.520592639000163 -1.0586386367862928 -1.4971788072712775
