20

C 3.288884359848356 0.11871447397428202 0.6480463835793212
C 2.6802854345764686 0.04775084958750289 -0.6995361999673296
C 1.3846458555836034 -0.1496828762843157 -0.8582789380858651
C 0.5334524745499014 -0.30123061420103253 0.3143793388545138
C -0.7554894334177531 -0.49974611035377536 0.27799677505324827
C -1.4844584374625986 -0.6346244162107255 1.580216289385403
C -1.5397852763487874 -0.5996771304643649 -0.9644701866513011
C -2.6076910962527533 0.48071053409301984 -1.0207395324552158
H 4.1550848536029195 -0.5420959099959112 0.7702979209969782
H 3.454274727195733 1.1516380755742612 0.9642932924805941
H 3.3241393110469875 0.16186812724026006 -1.556546987894496
H 0.9954270392705774 -0.1928494206877326 -1.8510147801088954
H 1.0077922346487325 -0.24510463374315106 1.3193884055452947
H -2.3721386561077287 -1.292888392075768 1.4325973522994155
H -1.8701996665151757 0.3754891510012582 1.815089155717755
H -0.8255263820340696 -1.0477369152976443 2.374320792432963
H -0.9425482980905698 -0.4901987319154674 -1.8756987127145242
H -2.1271213727168425 -1.5661114616158653 -0.9848413530786537
H -3.4363345869813746 0.14815763411124003 -1.6409272878277255
H -2.862693084391094 0.8913164453685085 -0.04457172756579973
