47

C 4.382857009090594 3.101191431282298 2.9835723735300386
C 4.021914559781424 3.698765681123989 1.7073383406060305
C 4.095238785446726 2.8741242093913684 0.6744918205986508
C 4.084767778560224 2.0450994458690497 -0.31324243401311164
C 2.726180479022061 1.4746114104714025 -0.5967420966335857
C 1.8727874156709612 2.4803686185326987 -1.2544864113927157
C 2.4688765969126556 0.2426119380750805 -0.3315993076622451
C 3.7325783546340685 -0.46612486401403963 0.2720805519315915
C 3.46783493021993 -0.8536139537889891 1.6963028898319894
C 1.3193067947520987 -0.6120758323636285 -0.32303568342521516
C 1.5727353950565122 -1.9140678051854025 -0.04201523211288019
C -0.10734550220964807 -0.2467487368874857 -0.5252736615419985
C -0.42284223308820135 0.9062268146893329 -0.7677791667564866
C -1.4449265068424995 1.8288871758073229 -1.0336809826910383
C -1.1014603061824852 -1.3460331845054576 -0.4177672796640003
C -2.40013869738557 -1.1669662450323615 -0.572798489621112
C -3.3784778413487486 -2.2806696275294134 -0.461179749185915
C -3.6921329360174115 -2.9414119968736094 -1.7157918116340871
C -4.998507791016466 -2.901337142854493 -1.866760914665457
C -5.626344050586262 -2.2201775865082385 -0.7372035671656827
C -7.093250033513666 -1.9774927847753025 -0.5430027797015713
C -4.672795741331622 -1.8600416605896748 0.07994548075798466
H 4.695322890334869 2.0563466283772374 2.9304337890192356
H 5.1501604919459405 3.7130831709114087 3.5430466752639465
H 3.7137563960964592 4.66898059905248 1.4565247738917932
H 4.966696099892162 1.8577089251390424 -0.812518662989629
H 1.2134605731653039 2.9677436143679845 -0.5311631729463062
H 2.5377504359335328 3.3730770697157224 -1.6027770632902565
H 1.3727048948982097 2.099563650618349 -2.132936008813326
H 4.563553746435993 0.2552873275456253 0.262079230111418
H 4.020006415017489 -1.2811422124881127 -0.3929687267696966
H 3.8717148845902942 -1.8597519575539372 1.9780619614595776
H 2.387429163229537 -0.7392583850346638 1.9020818606731016
H 4.050316556551225 -0.15087307501826597 2.380133535933289
H 0.7829507745442904 -2.611508973519323 -0.01361210934071262
H 2.5452545333961027 -2.3128078267199506 0.13441347129873266
H -1.063135806303673 2.8913783972176357 -1.2464764384626779
H -2.259167034604438 1.9330389910197678 -0.25271731619839066
H -2.0090782930977324 1.5610935778155715 -1.982714480564287
H -0.839017268214913 -2.3712187124546316 -0.20801337846843887
H -2.7929416068077817 -0.21450564432638072 -0.7822596859315641
H -3.0085365958570947 -3.3917487241325834 -2.4195046683686705
H -5.57271961083862 -3.3132805354769705 -2.7147679963644493
H -7.197617246769411 -1.3850672193733748 0.38453150050192275
H -7.641960190154967 -2.925261221166054 -0.520694303382829
H -7.509345093685651 -1.3560140247552868 -1.3584570015997008
H -4.7844155693473835 -1.3299887440963447 1.0225130529701152
