20

C -2.5708572237458323 -1.6693973781179408 -1.1776368111930937
C -2.686992564936638 -1.0618282809457802 0.1310443085794719
C -1.790491016804789 -0.12866302940110724 0.40898378395026774
C -0.861097200398391 0.7751754508972264 0.5733077470872741
C -1.2644890074108206 2.1201453285971095 0.13617476403922135
C 0.35590030909223946 0.3065671962940999 1.1337190543313127
C 1.5719614736536882 0.34882816506062325 0.3729896069890073
C 2.437249732721873 -0.6508034988550802 0.4301321575662974
C 3.7059547848326315 -0.6936837890082475 -0.31298566599459277
H -2.059203977604217 -2.6481885807008165 -1.1742652439934027
H -3.5708580039275 -1.7706934676281898 -1.6447580014224772
H -3.358663546119304 -1.2195126912456145 0.9223099716467028
H -0.40410143758433487 2.790716887300341 -0.06530300199897615
H -1.9768874803061118 2.5822217015545545 0.8756832831089668
H -1.8357898329504134 2.0617300126879314 -0.8133286606687113
H 0.35890315037848974 -0.1768080772433179 2.095569254627721
H 1.8017443131390645 1.1933851822372357 -0.25694416932966296
H 3.5392112568362073 -1.2012954505285713 -1.3024063936829413
H 4.112296769512688 0.3068822858977349 -0.560871530193307
H 4.496209501621398 -1.264777966852211 0.22858554655095992
