29

C 0.6615690725567805 0.7483126116925722 -1.9327870335967134
C 0.45600245968116315 0.2973112759204932 -0.5497591357429756
C -0.6551341843473089 0.5052215581473181 0.17711285970312862
C -0.46344608816084737 -0.09541422749409685 1.4923117496581468
C 0.7586073024257035 -0.6656656993931592 1.5646015614381732
C 1.3416393262707538 -0.42443355598785926 0.289557755873575
C 2.5287858582610365 -0.8127338822730488 -0.05498226641413748
C 3.7778825714614004 -1.0917774297215896 -0.3599200446977118
C 4.751987926697094 -0.06790853023080222 -0.03210203295853461
C -1.6847360865724021 0.11799139724807885 2.325170356923245
C -2.737919410991427 0.4554265144569077 1.2939051600757103
C -3.247179287160333 -0.7903315524061315 0.6141712008156144
C -3.507782178199088 -0.38104172583206314 -0.7819230949008593
C -2.789105911634672 0.7019188348031615 -1.0331683030213905
C -1.9958932964911276 1.1125834304201683 0.1483121059702224
H -0.2583728884830801 0.6657204646652779 -2.560327835086059
H 1.447823847155882 0.16057139499991915 -2.4488277418630866
H 1.1671631634404152 -1.1870524275804155 2.4325439398448547
H 3.8674046978924674 -2.039416962120292 -0.8044178376659643
H 5.787585696077555 -0.48601627078457726 -0.14597517746156416
H 4.631795243553797 0.890147381777537 -0.5595135225420709
H 4.667102286158423 0.1637826579895884 1.067734330142156
H -2.0059475420142237 -0.8105098498441792 2.840101687598955
H -1.561060570980135 0.9293888037927468 3.044937427136224
H -3.533988257061404 1.114143619201068 1.6784633834218177
H -2.428688597817818 -1.5440705614268844 0.6473004616048228
H -4.187633382185498 -0.8907673198370715 -1.4987645723726157
H -2.7972285629628733 1.2106417821365276 -1.9988923114902735
H -1.991233206570079 2.213978267680665 0.23237928153337545
