16

C 2.5550419119907586 -0.05616718131626511 -0.8742023597893619
C 1.1458199242756741 0.30359622393181546 -1.17885776929016
C 0.12900813097602087 -0.34253792402677463 -0.2846226292909305
C 0.11978139997927807 -0.13305346354668948 1.178803872744658
C -0.9989585324477891 0.4246392427337525 0.2833419224473881
C -2.343998194720388 -0.266022336149965 0.3423424665975412
H 3.2408740140877623 0.8159930247149139 -0.8636738822305488
H 2.688197839816977 -0.7232115573015174 -0.010461403175699574
H 0.92605036183066 -0.062411081568812504 -2.2237981402236366
H 1.0378253882994712 1.4027217556523646 -1.208430259058037
H 0.796024597171145 0.5974208688165352 1.6690753944552015
H -0.18402308916785906 -1.0427805080610857 1.7739071862083395
H -1.0360487524377182 1.5285431089137933 0.2615431091827552
H -3.1236195609313584 0.4404888816330381 -0.020288564775523297
H -2.578518019115879 -0.5384105819849178 1.400921924521292
H -2.373457419606835 -1.1975814749238665 -0.24560086832326775
