11

C -2.1615603852260845 0.12718771544180635 -0.20187407393740042
C -0.6900610519505527 0.09852657232448943 -0.21885436461105545
C -0.04060902925974627 -0.5615010378567578 0.7025940846074127
C 1.401564479693582 -0.611149609320594 0.716880488222167
C 2.2037446852227203 -0.02930051811613652 -0.1497422752032397
H -2.5396761415677687 0.5838865057562153 0.7210896059031429
H -2.6074557746376006 0.49578443368817093 -1.1243696503710479
H -0.1562998428517226 0.615324965665852 -0.9815318921370139
H -0.5594502970332796 -1.0942896870313035 1.4876270132466107
H 1.874880828869507 0.5637739154203695 -0.9878034466824417
H 3.274922528740854 -0.18824325597241767 0.035984510963009635
