27

C 4.4184871450903564 1.0191406337384752 -1.0722989250015016
C 3.8994303034487228 0.8406185558959434 0.27614476410708644
C 3.2993554478526654 -0.3093898124584397 0.5003697111064775
C 2.6116641132024725 -1.4353719895897836 0.6078638795000991
C 1.2109290492479987 -1.3661960453719082 0.25507846663395856
C 0.7651787236944729 -2.2565673635281813 -0.8455681658548183
C 0.6549495099976276 -0.03215341351310364 0.2686925359674815
C -0.6390974908929425 0.14930533997945117 0.06298529289386412
C -1.2813088101506742 1.4289857849144372 0.057495938069634545
C -2.571897828802864 1.5229877397103764 -0.15472317033309857
C -3.4462138720975997 0.3505891566537016 -0.39886071386428634
C -4.893980089897981 0.827341264516649 -0.43188080102044496
H 4.463890191520694 2.1209084746757476 -1.3181014891103182
H 5.494466397528959 0.686261836078464 -1.0820766719102897
H 3.9168856056604007 1.4760121515857885 1.1163741375973433
H 3.2060736406471557 -2.2380734613358784 0.9433923794890093
H -0.21176040313721864 -2.7500437835790867 -0.589838706748181
H 1.5001909698025422 -3.037036203858867 -1.1119869050142035
H 0.5385582902042158 -1.632132744550058 -1.7505303180877043
H 1.2709042348150534 0.8332793542894444 0.44389413679266315
H -1.252604900871907 -0.7361214633644958 -0.11342609150757667
H -0.716769824776112 2.3258973498028928 0.2264954182567797
H -3.377172996455428 -0.41065340400067835 0.3974741338084095
H -3.1833601322277523 -0.1431356443257708 -1.356205495601464
H -5.547469583827142 -0.06697460351272659 -0.4933916069832764
H -5.0751188938404965 1.4618196124130658 -1.3253310959267202
H -5.054208795734687 1.3707026787350596 0.5242780488207027
