17

C 3.130241029863862 -0.3932589129354007 -1.0012819408983349
C 1.674998169579926 -0.3011093456615142 -0.7139612826293968
C 1.189140782569559 -0.03982187204967454 0.485110430854795
C -0.2757451434716971 0.041767386928430524 0.7204611380844291
C -1.0237220635194433 -0.20975543213626288 -0.5718684390070687
C -2.5064023166176406 -0.13169140900271628 -0.3391689567401536
C -3.0004047912532976 0.2754625288287241 0.8220089841390824
H 3.3065949279272515 -1.125995396869654 -1.7942565652653966
H 3.7355667675211803 -0.5528576397373901 -0.08994894526164668
H 1.0087628997914115 -0.4623111961861001 -1.5527070394797493
H 1.8375156462491973 0.12618208962556654 1.3481771234798612
H -0.47717417114177824 1.1248001261934528 0.9732749327877019
H -0.6268787712612169 -0.5682621200711135 1.5446929805679912
H -0.7529614653880281 0.5290333846521049 -1.354591030576501
H -0.8039721392758814 -1.208762276634856 -0.9966689329222994
H -2.329619108509941 0.5522101936071004 1.6039731083794773
H -4.085940253063458 0.3060037338520406 0.9167544344872195
