16

C 3.677973628845163 0.6480864268114765 -0.14188655886952398
C 2.5019204833884405 -0.2556143302234906 -0.20970011001401467
C 1.3912836715011048 0.02708677375560074 0.4512342581214858
C 0.2952750292799036 -0.9074467484797376 0.32911144879764886
C -0.8035112036415404 -0.43706034760525 -0.1775007485160123
C -1.8900434842460423 0.14279641561405715 -0.5983910449210788
C -2.7355112496798375 0.7291987575089336 0.4051897401455665
C -4.0269989302965055 0.43933521794804714 0.3756226362796469
H 4.2806123863862515 0.346715940022773 0.7280259332456632
H 4.251812331490656 0.6434030899026447 -1.0951065736631016
H 2.6190610834090826 -1.1421512679194532 -0.8260805184063725
H 1.3612976373818142 0.9211932483209193 1.0347533826511508
H 0.25786892853191584 -1.924017272695605 0.5951761402192609
H -2.0196962502680456 0.1123193696096001 -1.6449333433852598
H -4.678101177544573 0.8675711939510483 1.1177111558180044
H -4.483242884537781 -0.211416466521577 -0.35755911922932837
