21

C 4.562817451704445 0.2990924401137746 0.323624956973815
C 3.2338632293085725 0.6131999019322749 -0.27230653020892603
C 2.1867261646541762 -0.15886054221221274 -0.03738440124029368
C 0.8806504443918983 0.18273722856972038 -0.645803714326505
C -0.16769406598297698 -0.7657659931966079 -0.2721332782122333
C -1.371629523456914 -0.3238143628364686 0.03596082860780657
C -2.536435978175054 -1.1175076649486744 0.43057477027530355
C -3.6549327443470636 -0.44878384357309886 0.2338521616848026
C -3.3189417387898104 0.905943223797491 -0.33276742918735175
C -1.8509968380892854 1.0979606629591743 0.06017308309798886
H 4.361007847678966 -0.0395771392028961 1.369446547242203
H 4.997555493370509 -0.5179407467830356 -0.3030980946632881
H 3.179144138337413 1.4955511882137316 -0.8975877796480539
H 2.279697103340566 -1.0227232628452083 0.586037978446984
H 0.9409713713286575 0.3647052157961745 -1.7293826289612095
H 0.043472670234426164 -1.8184455033304816 -0.2491256214972536
H -2.5034656933775756 -2.130558770119336 0.8359842172851023
H -4.686467786835711 -0.7308462368601064 0.41394480141148793
H -3.4428041344098377 0.9168066816600288 -1.4360777554380741
H -1.8348126129268254 1.518942898671836 1.0687088702661338
H -1.297724797958579 1.679884624193939 -0.6871445305236334
