27

C 4.595988653670829 -0.3590388786376411 0.867361135646655
C 3.6182176507758403 -1.1535956189707808 -0.009396483020733927
C 2.962382044628072 -0.2028234518551746 -0.9007966329949166
C 2.3372288793690905 0.8006374497056701 -0.31859591190907577
C 1.6613917829371303 1.6989570268102028 0.3648046409352043
C 0.3183417375397346 1.34504022964781 0.7075785026883906
C -0.5242839967346534 0.6844380370171187 -0.02334816968187912
C -1.884334644383259 0.40094299915805276 0.4853383136691308
C -1.9098470900598254 -0.8752196236772591 1.2445908115803346
C -2.6996713347029466 -1.7226279991648334 0.6116116694373135
C -3.2504414694516286 -1.110230141969153 -0.5811122448692752
C -2.7756602664854566 0.123549466643233 -0.6529005309885781
C -3.1084381499715854 1.0679010495777796 -1.7322131692139735
H 5.073274584376265 0.3734764611257017 0.19618946900824244
H 3.9647933425455806 0.11462176452080179 1.6542270234325334
H 2.852420664123846 -1.6553916474123755 0.6515931818429848
H 4.135005645108969 -1.979701256434635 -0.5393236438795714
H 2.8982396359572906 -0.17760611846312857 -1.9524969845926827
H 2.216162542601898 2.5724478677502343 0.5699587341320409
H -0.24544172263231026 0.33796627728204304 -1.0002302904775182
H -2.2692261064992363 1.2576295807340525 1.092185157298968
H -1.3808942537493543 -1.101112581600212 2.1638729869123465
H -2.9064004897860833 -2.7502401516924238 0.9490689770111808
H -3.9318914238547973 -1.6133856499644235 -1.2695457360175475
H -2.4192957179095584 1.9330715705909591 -1.7695227879022144
H -4.149170536903471 1.440876992567708 -1.519410705223814
H -3.1784499605143846 0.549416346709678 -2.7041806268617643
