17

C -3.884496600737524 0.36673173907006046 -0.18735439089200642
C -2.455390968865575 0.6577402481408309 -0.3832745927124915
C -1.5626377560736369 -0.2422549877279154 -0.06075006822601205
C -0.14000127284513755 -0.058858777540770096 -0.21205964754641204
C 0.6747344663094333 -1.031732443043634 0.14460308597923816
C 2.1331243750614806 -0.8308558957235659 -0.015802221910202318
C 2.4016717030554995 0.5363028895576188 -0.5924905217772576
H -4.171683119450853 0.7169004750440692 0.8272825963517055
H -4.030853095374722 -0.7330085601480386 -0.19321679740627107
H -2.156294406183145 1.5984396575579685 -0.7861045765609131
H 0.19324881535380492 0.8839529497094576 -0.6176056969779703
H 0.2732856855837932 -1.9605040234388988 0.5479911196137842
H 2.5877167651788953 -1.6035318825226919 -0.6594551226371665
H 2.6216297614235264 -0.9436652389343612 0.9813326878186206
H 2.045922872096779 1.3483575968775336 0.07892956652835006
H 1.9592151837888212 0.6355661270489869 -1.593085814261741
H 3.5108075916779304 0.6604201260731263 -0.6803596253237238
