13

C 3.061406988338744 0.19617801478350674 -0.0692856059826862
C 2.1601025717525895 -0.9869897303323901 -0.28916937085498085
C 0.9019383730197954 -0.7440596461990525 -0.558685532392277
C -0.3295159453928883 -0.7208777865603447 -0.9738151166200963
C -1.511599267079762 -0.17984030528047995 -1.1987960561889868
C -2.4895806100598805 -0.052836374961044826 -0.1133999174541662
C -2.625862001515269 1.1277593101360708 0.4327085193033878
H 2.650407696137861 1.0814705298392784 -0.6289218526127406
H 4.098690322202705 -0.030609378362935945 -0.3968331236478867
H 2.535756928454651 -1.9929450571013598 -0.22712856850313434
H -3.0751881029480277 -0.9186556695948209 0.2167434914828438
H -2.047483928990363 1.9563304862715423 0.0976508780466724
H -3.3290730239603903 1.265075607351545 1.2287703730181145
