33

C -6.044079420264884 -0.4250134874002956 0.5180201623060882
C -5.771403142229133 0.7208038853296391 -0.39311482862975317
C -4.8076725793866935 0.5701253192298339 -1.283781025730875
C -4.019755737452595 -0.6290912731839562 -1.415181391367572
C -3.0695363782827436 -0.7839138335716188 -0.5247930610510474
C -2.0826804394023326 -0.8098760619779648 0.32855730326346494
C -0.8440565401063971 -0.16325927988964575 -0.07871375410435599
C -0.2390949964505359 0.5456743714944109 1.0394433175897102
C 1.0486844605461587 0.5242256781281281 1.261898870442447
C 1.9289878691701352 -0.2177195611551603 0.3886464451619731
C 3.4031640983469083 -0.24204211951800417 0.6436260870089217
C 3.9129767793973063 1.1141414882060292 0.9662640977407577
C 5.126357391953223 1.441984507084471 0.5581550563911751
C 5.9604730821890115 0.48712847023238515 -0.20100499822541598
C 1.4722423869197934 -0.8821256397358944 -0.6376498865852472
C 0.03165256788811251 -0.9255101872694458 -0.9814865612650443
H -5.1459109632411 -0.9789884482490756 0.7893107327455061
H -6.8571405500061315 -1.0629306222827928 0.14428762128008957
H -6.3621742924641635 1.6138199388818661 -0.29118210555112123
H -4.636315573228546 1.439950167882396 -1.9394217516497354
H -4.083236197014722 -1.4102390262180724 -2.1201959882261487
H -2.3254638203659583 -1.3158138836733269 1.2377175022126568
H -0.9043887498961825 1.1150601550215635 1.7116129918494607
H 1.483419541697331 1.0779688537832548 2.127869168157902
H 3.6000253316151913 -0.8860724689103181 1.5331230131246876
H 3.296908717712074 1.8084828091792804 1.522546856386133
H 5.522258872841847 2.424340289678649 0.7799904971878527
H 6.572640281451393 1.0020344365812934 -0.9792801181522207
H 6.667450238586265 -0.08215668357467046 0.4614490194130347
H 5.32157048962323 -0.2559970676105497 -0.723956282431931
H 2.154432921164132 -1.4508281415062598 -1.30554057641178
H -0.035941468140425904 -0.43560545161344977 -2.0030011316560974
H -0.2743941831698928 -1.9854373858614502 -1.13421528122344
