14

C -1.275267322187168 -1.3466303869388865 -0.13665955239201696
C -0.42457630867594565 -0.18001134509988542 0.09243187200234347
C 0.8376945619224309 -0.3739967393541895 0.3508056516765071
C 2.1230391304824954 -0.5670529085152385 0.4519977834004601
C 3.4116609619544738 -0.6515419623020673 0.3170524282677124
C -0.9711809361218915 1.1615383728074096 0.0338863277338116
C -2.236420665273276 1.4327317238402535 -0.22183659965494962
H -2.071790806725363 -1.5081669116032437 0.5742273227428775
H -1.473856928001249 -1.5941574019205655 -1.176588239476531
H 3.8731102104955895 -1.371161361510463 -0.3369289531417726
H 4.042329593057346 0.016511210615084888 0.8742344953005513
H -0.31718432659371826 1.9954818927919191 0.20742580591485002
H -2.637563747652524 2.4239151482420014 -0.2645183118628499
H -2.8799934166811596 0.5625406689478853 -0.3946996675029749
