12

C 2.26168443463575 0.044278182995355436 -0.18429803248223287
C 1.0244251147041772 -0.7052102923625112 -0.4280608465798462
C -0.1484593739266111 -0.1954517694904864 -0.10133558802968011
C -1.047167188504719 0.8144888360894624 0.43213253788713185
C -1.6630257204391354 -0.4127044661413085 -0.07955916296422783
H 2.6684059080224496 -0.08902293584767261 0.835664509452824
H 2.2685709356565393 1.0716100733194776 -0.5504740118197229
H 1.0982195951370475 -1.6839461126057629 -0.8813559135985517
H -1.2733061206910963 1.7537759820402266 -0.14026124432225526
H -1.0041255485184306 0.9730283178817095 1.52823555844585
H -2.043010412754965 -1.1286018825924589 0.657196853149371
H -2.1422116233211237 -0.4422439332859708 -1.0878846591386093
