15

C -1.5267224794170513 1.1728341622434575 0.050782422207111835
C -1.1376955915739941 -0.1791210228230556 -0.46388979304948375
C -0.43334381903602126 -1.018848774325342 0.5745385489220673
C 0.8029352507853181 -0.427788949891595 1.0770795598171423
C 1.6205214940765307 0.06285921496645312 0.17169696592419775
C 2.3878950705616844 0.5152679991860681 -0.7964086018699111
H -1.9630626681190269 1.7383736400987242 -0.8004188867157137
H -2.2778047446358327 1.1474407727497262 0.842618250425355
H -0.48303638412937794 -0.07953332424271846 -1.342020019858512
H -2.0447465214901035 -0.7283102871583651 -0.7800522344140698
H -0.26771831807772273 -2.036977525048164 0.16576897928356624
H -1.1112316812820624 -1.1719390254472597 1.4647360185151592
H 1.1510864621944106 -0.33013155620643303 2.0722185391490386
H 3.076007907248099 -0.189940157944224 -1.1831763611571287
H 2.2069160228950793 1.5258148338427315 -1.0534733871788544
