18

C 3.608015379592886 0.6201665370514778 0.6098176526025461
C 3.1439556230493233 0.6619829282920665 -0.76983356647203
C 1.8378182962918568 0.6195167673129127 -0.9265174346135995
C 0.5399501970586504 0.46183548631328886 -1.0065507969080205
C 0.05336407827482176 -0.9022522247136502 -1.0647001984577582
C -0.7956336609724369 -1.3196506081836747 0.03845723944266501
C -1.5735965373847662 -0.4542973937150294 0.6321747797846182
C -2.5729266880420996 0.3611436145873381 0.9360160046828212
C -3.7916598678893223 0.36188635090618576 0.0757756901682551
H 4.7000745532671 0.8627055197660385 0.6556327840322411
H 3.4803809034171045 -0.3570923880009035 1.1059690803904758
H 3.677534852465057 0.7197143284372365 -1.6770463215584752
H 0.010317793926565646 1.373752067028391 -1.016675956045645
H 0.7914923092188797 -1.6113609931374573 -1.3970274518506793
H -0.8108240087838378 -2.3282790381102854 0.3871739390673763
H -4.640282839329304 0.8151920743073416 0.6186085945404792
H -3.618755387431397 0.8229941301900857 -0.8989903879315054
H -4.039224996728298 -0.7079571583326594 -0.10954494817308887
