27

C 5.216798927249431 -1.3083971386650828 -0.6106907563978738
C 3.800073721370466 -0.8071753103996715 -0.5562782536429518
C 3.7357982100146567 0.5488343346862294 0.045184417860487144
C 2.572563238062272 1.1746623512907821 0.0599925689791532
C 1.3813387909929784 0.5680694011995955 -0.4918795933248259
C 0.25377130847647045 1.1971108822799366 -0.4673190530790552
C -1.0408319442319207 0.7473103830172146 -0.9718902828855501
C -1.8249373145790442 -0.041745599331950205 0.011934178023441952
C -3.0119169745633343 0.2738301776581336 0.47381568297746746
C -3.8426403095803927 1.484196414681587 0.12381160356387165
C -3.4118640606907 -0.7630017200208404 1.4072387280675915
C -2.49709985988134 -1.707700498101963 1.5285724094554345
C -1.4002044147998312 -1.3087675560134229 0.6318949377371418
H 5.622879214396004 -1.2071254621877334 -1.6246569999512983
H 5.8637336627971095 -0.8120243367022105 0.16159674176464636
H 3.4172873977668665 -0.74058370764763 -1.5909092031959957
H 3.174763484141398 -1.4735159247478122 0.07272116818205007
H 2.5648130758738183 2.164341319608426 0.5080489390044696
H 1.4454009536257486 -0.40974958551357765 -0.9215192832178544
H -0.8322184554244869 0.06711281505024777 -1.8497603053220493
H -1.6804011006277821 1.5517751098168457 -1.3883483567328807
H -3.805742083701278 1.7066299931027773 -0.9505213465229646
H -3.5085543881628394 2.3607892698893997 0.6843358927795139
H -4.905935662086329 1.2604788588617146 0.3777742611070981
H -4.367402709188403 -0.7672866754419994 1.954825538553558
H -2.4821449458568434 -2.6029616114654477 2.1291742142337537
H -0.43732776139355484 -1.155106184903916 1.1721403550285865
