23

C 4.378468487457721 1.0016617766292182 -0.6061534279117698
C 3.0266064726984463 0.5219111923449357 -0.13313030966165118
C 1.97053224457595 0.590725668825178 -0.9036594176558558
C 0.6860347153738369 0.13645678727270463 -0.4582284899786081
C 0.426727389295589 -0.37816745782674227 0.7186215712500592
C -0.9740299058376235 -0.8206083197703501 1.0683054337108777
C -1.0987532430576066 -2.2101252527109088 0.5966979426779029
C -2.0256842903892576 -2.2735251513885313 -0.33265874507978604
C -2.5812784539556475 -0.9462483784788714 -0.5470977342842087
C -1.9779566759060252 -0.09756837091127143 0.260423817466478
C -2.267572618989958 1.326484030796329 0.33241916921995135
C -1.6221836714133064 2.1201862144602615 1.1675815404663825
H 4.928666675754562 0.11173990274318762 -1.0200926050070986
H 4.982918080422035 1.3797933924407542 0.25222080245479717
H 3.028111239390977 0.13202642398013922 0.8696673685333852
H -0.13857370807974156 0.2333030833157624 -1.1706521667380927
H 1.226637021931608 -0.4820204800009943 1.4351867853901914
H -0.540129710043322 -3.0991382614358005 0.9240954104035874
H -2.3528223151522183 -3.1808623128696136 -0.8827328284522012
H -3.371732778277391 -0.7090283349003147 -1.2665300296069544
H -3.0287134601428205 1.7947151901155092 -0.30010464735620523
H -0.8667151276707282 1.6823070011197052 1.8021335476277107
H -1.808556367984858 3.1659816562498606 1.2464040603236344
