20

C -4.510211750933396 -0.9603565854056811 -0.5883586615751444
C -3.6347560147767766 0.11402049223485876 -0.05137785843333423
C -2.3345657360837766 -0.054022556879998844 -0.1340621384525329
C -1.4078349853995884 0.9222413233774068 0.35401683503163855
C -0.15414116493892968 0.6903556252148995 0.09719216465054543
C 1.0723154780934452 0.3820102779154499 -0.2046117555061455
C 1.701267963843974 0.8028321804023856 -1.4043296994446677
C 2.9508008042775105 0.3070166047386151 -1.3718171827749832
C 3.2082600705593145 -0.4656799355030493 -0.1487753935634114
C 1.908986682577975 -0.4255926525799088 0.6620150379534516
H -5.326788749372208 -1.1362386729340228 0.16457521076688267
H -3.953843417113367 -1.9030853704060782 -0.7167252838075111
H -4.111396836912695 0.991545227976518 0.3861199674151461
H -1.5734583701479048 1.8100161896249578 0.8943570010338266
H 1.3325389077495242 1.3986269790017662 -2.229297907239437
H 3.7028506891137085 0.44196083506409906 -2.13837259060835
H 3.516629946933666 -1.4856425144602823 -0.38668915855643854
H 4.016324396513099 -0.004597748924298494 0.47320609399761693
H 2.0626038377611047 0.043938776883759585 1.645194643070625
H 1.5344182482558775 -1.4693484753416313 0.8149289258659441
