16

C -1.4691790013153605 1.1092117381675377 0.9610822720970508
C -1.0902434839051884 0.04794274606755226 0.03883443502538157
C -2.1579821150057383 -0.857862688652466 -0.47091838081403603
C 0.15900732913488133 -0.14977802562840856 -0.3680077565315939
C 1.295143158296178 0.7018686706202737 0.08488255485088347
C 2.5457215797034745 -0.15422820881474256 0.1615870573035759
H -1.1657848917613483 0.9978430299461848 1.9906495778416773
H -1.4788246102268108 2.12007245913195 0.5507133852228576
H -2.079222228651678 -0.8513915814670519 -1.5728164021643327
H -3.144525942690681 -0.6065148428910199 -0.08040819626069051
H -1.8754878744115175 -1.9033084071207143 -0.1559258462176223
H 0.4112088497856241 -0.9497814804954804 -1.0565305749213023
H 1.4206704294327028 1.5608568861768846 -0.5840287023843335
H 2.763910520856255 -0.6633466489551268 -0.8079034193543163
H 2.431896452112457 -0.9027299462106592 0.9518676437482396
H 3.4336918286467997 0.5011463001252546 0.3569223525586016
