20

C -3.9118436824667935 -0.09334260053371606 0.05961612957922608
C -2.6430350007362615 0.0692295393112766 -0.7508915322774092
C -1.4134873349170496 -0.04326198288990904 0.16037938075473931
C -0.2373593784974232 0.12229600897168097 -0.6843444198720074
C 0.7937779715507308 -0.6406799037747948 -0.40213081769344067
C 1.7904535608261374 -1.3787217693117901 0.019913147562730542
C 2.6289520478269224 -0.7888920837902257 1.0119899528836744
C 3.311210423232452 0.27218586671256734 0.6401572245250285
C 3.95942157258632 1.328439943720561 0.18849217957020542
H -4.6846215050071285 -0.48790290656830987 -0.6257753004435623
H -4.232613029773425 0.9097067002909422 0.39093047385683083
H -2.5823085821765006 -0.7523958213326204 -1.5012774000004392
H -2.691134173101339 1.0536279408749993 -1.2478274937139462
H -1.5237616722579712 0.7358635069569885 0.9513621988974715
H -1.4687906264042876 -1.0259119901289133 0.6257490320430503
H -0.07043416178394915 0.7646458126431848 -1.4992119619346125
H 1.8369845284004158 -2.3257096301464517 -0.438662618292942
H 2.7925637486594805 -1.0735799138937947 2.0166696896962693
H 4.901091196888989 1.1113496034092167 -0.23967823002794256
H 3.4449340971493587 2.2430536794791576 0.3179625108358613
