24

C -2.3450169728338057 1.9239575943738467 -0.713071384177139
C -1.9736164719029163 0.500284842572732 -0.49979306336309276
C -0.800760580417364 0.06043333843174716 -0.13779460581079658
C 0.39317690430389957 0.8444367972107932 0.1361130443121614
C 1.538367823644325 0.2959797152907258 0.49871617018208775
C 2.702784464175554 1.0887740388361662 0.7636851615455984
C 3.8481501089022365 0.5969069218169157 0.34509365749523674
C 4.9394396049240115 0.04254695963259778 -0.1069146110992691
C -0.8407034520803679 -1.4407906262077212 -0.03367910864678317
C -2.3224979731230087 -1.6952544842870945 0.18317540828362147
C -2.940463951041465 -0.6223677573777349 -0.6841753928457504
H -3.1522529832835238 2.1454484523476927 0.03589681379818717
H -1.4844876232036033 2.5785936154107176 -0.5749428569309105
H 0.3507224721238883 1.9189401908938635 0.04171211923221229
H 1.5486460510040532 -0.803475675379578 0.5860435588501333
H 2.7887872081105654 2.02150272720123 1.2501792882424227
H 5.432880309578184 -0.6044585314198557 0.5871912324613586
H 5.20286073667321 0.2975728308901285 -1.100581171789092
H -0.5007789110645114 -1.9183935437590844 -0.9700716845115218
H -0.2743692034437759 -1.785032945214167 0.8627459447329863
H -2.6172308302606373 -2.70453753927611 -0.17521016794894234
H -2.603761520500893 -1.5083929145633639 1.2312357915889804
H -2.9286267645765434 -0.8775734227530825 -1.7605540887214073
H -3.9612484457097983 -0.355100584671301 -0.393462735149764
