14

C 2.8261348722407083 0.7758439411678012 -0.5802481167554986
C 1.601622692576713 -0.08109376222935784 -0.7355817681035678
C 0.5264389097684551 0.10526867173619314 0.007088875428890301
C -0.6627323917304895 -0.7539381301642009 -0.16904194532156905
C -1.87000954370834 0.024161018014658735 -0.551014533158799
C -2.867876140690677 0.18770408830502294 0.31503493187566445
H 2.5971136537307813 1.7445435665150937 -0.10660351662898822
H 3.551010630763005 0.23752481419945567 0.07040067834801476
H 1.6727736413922878 -0.8521815463904954 -1.495236833185585
H 0.49784029215276693 0.8830088544265642 0.7504244630459758
H -0.41075930173683367 -1.5516526596197184 -0.8865783003632974
H -0.8536062015050382 -1.2565123141625243 0.8017876880658814
H -3.7426427887952842 0.7581470320620177 0.02188232426002
H -2.865308324458068 -0.22082357386051527 1.3184002199990283
