32

C -2.161949446875479 -1.9465318198035801 1.539092681303112
C -2.27980646928301 -1.2424416262950881 0.23746702556097193
C -2.6545937085249918 0.020910359301953882 0.29407178342056894
C -3.1370029448106664 1.200744844591156 0.052986741334971055
C -3.7630314150972914 2.3395530943685094 0.07143702492265842
C -4.582038632350694 3.3183751274596465 0.3288397778690976
C -1.996398127547116 -1.9146953129162712 -1.022413054364577
C -0.8921166036677418 -1.7093725845866115 -1.7036590445531268
C 0.10975269781808487 -0.7571031268921077 -1.1752457326396997
C 1.4449060188247607 -1.4216162332140436 -0.9231877428283959
C 2.0343506349796177 -2.0161085498889033 -2.1707161273699276
C 2.3875498189636026 -0.3881584205697928 -0.3777091268038521
C 1.8576008320872297 0.17115039106530994 0.8927584125369111
C 2.3973652578119773 1.2152146452604087 1.4545228906224041
C 3.0699608518137698 2.127222875977975 2.095674937137858
C 3.9232877200808702 2.8578866308561643 2.763407177743073
H -1.4228346423745384 -1.41498410121261 2.159945767809411
H -3.16510149070398 -1.9657198825641014 2.01118675663703
H -4.4782575820766 4.005893027873194 1.1561242186763507
H -5.431639840598363 3.4666192416899655 -0.32293723195935903
H -2.718244486525927 -2.610358791876818 -1.4174158827072765
H -0.7176189787742923 -2.22549965657172 -2.632377448415958
H 0.2206230106112896 0.09852239458608347 -1.884996536024388
H -0.24677345771699155 -0.3284753521343023 -0.22766476710011924
H 1.6338597238072115 -3.0259937051301087 -2.33168092334243
H 1.893374714557422 -1.3709633539677337 -3.0599292889396104
H 3.146046770010083 -2.0868916423923234 -1.991522187988607
H 2.588973950651036 0.42482739679005327 -1.1255956045949718
H 3.37054151541203 -0.8656594325725132 -0.13570620742166498
H 1.0062996422933337 -0.2801756885936721 1.3813708368133744
H 4.776011057412946 3.320369911219435 2.244144723803905
H 3.7869036097961457 3.003459340140517 3.8197261508602356
