11

C 2.875348052005109 -0.4008419602035426 0.10070555887933341
C 1.8077324652266267 0.6032288331070176 0.14558275505201312
C 0.5811701816537684 0.2746771264913448 0.5149404273720223
C -0.6862100201443877 0.023375473450596432 0.5340014682241824
C -1.967936463822932 -0.13586139034406108 0.4312170086650206
C -3.232706157728983 -0.08665789765795888 0.05395415652578535
H 2.54347666702615 -1.4021089773460693 -0.17812129357755196
H 3.4886312981146443 -0.32920212964175544 0.995088403484869
H 2.0581810823105546 1.6293470502440794 -0.1354770051114853
H -3.5975870393968274 -0.9126920355992685 -0.5415440821876565
H -3.8701000652437045 0.7367359074996143 0.32636554551093394
