14

C 3.1407246325322147 0.2903551923144391 -0.8415376555712664
C 1.648220224592765 0.2984271086456593 -0.632799782439234
C 1.178120976020823 -0.47207786846211747 0.29803049348878224
C -0.2088191733581092 -0.6126764970031242 0.657727726497301
C -1.1272411285404436 0.07403570814319779 0.023266590117588658
C -2.567036279568254 -0.11288588971850637 0.4425151387357367
H 3.60374341143191 0.4539076464650909 0.15362876489872498
H 3.3825019185934426 -0.7371027086077321 -1.1952715335496407
H 1.009526912568451 0.91378762720725 -1.2282318330791508
H -0.5361077102276958 -1.289427476738789 1.462788488747144
H -0.9079229582978663 0.7629530957713974 -0.7796777479773151
H -2.668679746766109 -0.9814335094502249 1.099904348409331
H -2.806819542719452 0.7966425663568336 1.0377542483732662
H -3.140211536261689 -0.1797792123457441 -0.4980972466512993
