26

C 5.047063133170853 -0.6663382844485313 -0.9516121460762775
C 4.444767382083286 -0.5621641060057296 0.4023204533209034
C 3.4040228914742805 0.19854215048404342 0.6224297032907955
C 2.7327273018808422 0.9982893466444943 -0.36369271193209274
C 1.5253137635719052 0.6293864548582412 -0.6982659428123396
C 0.27713976716772504 0.23476047765129854 -0.8644424186291352
C -0.7111102262378708 0.8149260575785414 0.03566163684426691
C -2.0156884281156975 0.10583525357062389 0.04085716263687022
C -2.427940169116335 -0.9418225179103202 -0.6180503069566717
C -3.830003944995794 -1.326934069076833 -0.3099708813573685
C -4.3827177616947015 -0.11488856775065476 0.3682053103835302
C -3.155768334184757 0.566077578201963 0.9100023614166548
H 4.6819970477066475 0.18541642461323415 -1.5530732735208053
H 6.159891115080376 -0.625507790226989 -0.91885560614031
H 4.879097118898013 -1.1266480666392 1.2120965894193088
H 2.9867722746921794 0.24866993319328104 1.6408695980124344
H 3.0666574994916833 1.861948227905255 -0.8754548800332227
H 0.17024075193132937 -0.4650922181687469 -1.6465714207583195
H -0.2781513177457088 0.8917786942320896 1.0717084835464692
H -0.8669977999211135 1.8864104728765327 -0.27134535898527457
H -1.8215754138268272 -1.5058549883973749 -1.33728772776667
H -3.7647261596079193 -2.138548223909911 0.46019875158665957
H -4.9343048889596846 0.5070274727572538 -0.3723725760358562
H -5.04035037512192 -0.4075104214158029 1.2101495065682673
H -3.2114370491823276 1.666913264787939 0.8787847890904598
H -2.934918178438192 0.18178932470592396 1.9277109048874366
