13

C 1.9074247098723387 -0.4980443483304106 0.18159297762738216
C 1.3390359035317014 0.9029479752624197 0.4411216374401958
C -0.10678641633116998 0.8279060641548047 0.05927123047996695
C -0.7772487571215342 -0.2837918764299709 0.27861240867429077
C -2.2231636075773635 -0.32570797752793845 -0.11544133847283006
H 2.977222975555888 -0.5316578846811206 0.41271607247711345
H 1.6594511231343796 -0.7376897202515739 -0.8630776539831104
H 1.7937237919953133 1.6498234999774366 -0.25653181516796814
H 1.434985341697481 1.1877160353420908 1.5004603354510568
H -0.348672845768856 -1.1635292592532696 0.7238128725398802
H -2.307045690474229 -1.1023066791481817 -0.8976917523278021
H -2.5437442725068813 0.6247758084097883 -0.5744117404878455
H -2.805182256007056 -0.5504416375240762 0.7958423947841823
