35

C -4.375291042059143 -2.6227616835850194 -0.6914943771315057
C -4.048972410804375 -1.5525667047224552 0.28605657482709723
C -2.800237567620885 -1.226506507920796 0.466665586033976
C -2.445835758249046 -0.19200721802600468 1.4076280403046981
C -2.5898401166681846 1.0358580014998775 1.0009617268346616
C -2.761679195759951 2.2387324965923447 0.5185778718293721
C -1.7258271802959253 -1.8887537180206662 -0.26842120826690086
C -0.4729007640101544 -1.5673355262382318 -0.09279596768817976
C 0.5991790837388298 -2.272844720540647 -0.8684966496163297
C -0.14407413179039916 -0.4976331553124509 0.88399478494152
C 0.9549796284378219 0.38417781022126357 0.3542969297229943
C 0.8461501863571674 1.3060181234186694 -0.5613600367934161
C 2.1439949290158578 1.9444043676772966 -0.8003646015149956
C 3.060933970641574 1.2376204474162444 0.14150967559992803
C 4.492768926313955 1.5063608632648395 0.295579194797065
C 5.069696357158274 2.443807907814977 -0.43770934549849466
C 2.3422251512207835 0.3476155492454478 0.7885280207533011
H -5.4689014385818595 -2.7915734150971057 -0.6390258161499901
H -3.839716038986685 -3.5580281128374085 -0.3698972542175151
H -4.810783826950029 -1.0320100326804376 0.8554231061525367
H -2.081564056096704 -0.2963775683527744 2.3925376413857578
H -1.9205741962700564 2.64621156634018 0.019465028685568223
H -3.721344473017067 2.6560827908021594 0.6861506315296124
H -1.9869520589393697 -2.6672569892720475 -0.9768973676004556
H 0.9692968328793827 -1.5917542643269627 -1.661871159732881
H 1.3868459254810797 -2.5732622326465746 -0.1551972183477515
H 0.17588202171408265 -3.157452020546584 -1.3627496204971785
H 0.18690240151066406 -0.9267178255002375 1.8490331224214516
H -0.07028112865981063 1.5892847795349643 -1.0968216103567214
H 2.130479250423851 3.043430093427245 -0.580040210067621
H 2.502036725075797 1.7475815686454648 -1.841290984801326
H 5.0549507021873366 0.9341283615490759 1.0062047965403855
H 6.113871556107075 2.672628762311535 -0.3568607060192609
H 4.482533288017191 3.007978766278726 -1.1477457820742736
H 2.7520484484785155 -0.3270805604139775 1.5537272940241473
