23

C -3.5546699126471752 -1.2440574072595427 0.2831163910986129
C -2.6778832479859664 -0.013073969438392924 0.1362680281187807
C -1.2749077659314485 -0.40505747141345416 -0.3337088492709053
C -0.4774661059657764 0.7929363380453097 -0.45942922591775626
C -0.6812908651342776 1.95824457542615 -1.2897264955161742
C 0.6018624545763825 0.8518388404683183 0.28144247813559026
C 1.7386065188209416 0.8224375006031596 0.9593231805115874
C 2.860602154968241 0.2446360470344454 0.2442087255880519
C 2.823439962368203 -1.2465263194776222 0.31339042543299644
H -2.8902628061859956 -2.122192220818609 0.44534459234892665
H -4.023259767109479 -1.4094247503164 -0.7264572181698693
H -3.1643781176911654 0.6692266444559531 -0.5724330688627426
H -2.643559282671738 0.47851027773284804 1.114551495889919
H -1.38124623436229 -0.995298379681766 -1.2706552691500115
H -0.8749438890663432 -1.1046988984002302 0.4191869326829607
H -1.2955324339261856 2.697153839260635 -0.7337637606861412
H 0.21937889129305385 2.4190704986566494 -1.715775454335856
H 1.6378503016203405 1.2288630345034368 1.9186336791961722
H 3.8059949664812103 0.6193432838576741 0.7293410163320109
H 2.8860315633126095 0.6342335272776752 -0.7956351102411631
H 3.0080291518362183 -1.7259205726205011 -0.6682259027082302
H 1.809926702857246 -1.5598017513286973 0.6267494542293008
H 3.547677760543363 -1.5904426665670037 1.0942539552939048
