17

C -3.0971355409160926 0.8441919532948097 -0.12530305186028004
C -2.311265871842862 -0.42524007447300693 0.11143916517720222
C -0.8898234970033295 -0.08609772553136492 0.3550229478564831
C 0.1238919927586462 -0.17626577508233077 1.2616939666030758
C 0.382485318974876 0.5047089655441501 -0.061054179109467005
C 1.3010975350363998 -0.22483423663631882 -0.9250405169408633
C 2.5750353938253787 -0.1831345443467075 -0.5940323518155608
C 3.81872253000504 -0.08822526356264272 -0.18405772668102904
H -3.8316252362309338 0.9363140177452344 0.6823346406474037
H -3.6263056444164823 0.7806854960379467 -1.1064250649348528
H -2.3317013416327055 -1.0459529317995495 -0.8201409808624389
H -2.745922719403936 -1.0418171277393038 0.9051464230397734
H 0.49165604195064316 -0.5010417416426673 2.2353375089193337
H 0.5578199970356478 1.6044627854925162 0.09415755254897368
H 1.107690377128815 -0.7960676780582032 -1.7953494971729753
H 4.352663565906156 0.7373609041464468 -0.5914867727493999
H 4.122717098825004 -0.8390470233888601 0.49278508864271947
