23

C 3.5284431394062423 1.7384458672954521 0.24134128570968114
C 2.523022738595315 0.6871837228544796 0.5144701098263686
C 1.668303454848478 0.2694408648506775 -0.4049279522482038
C 0.6544654029384755 -0.7879109162654363 -0.13606343127206671
C 0.8950813686236759 -1.951054187273164 -1.0036278854855576
C -0.70780341295931 -0.1581585658716172 -0.37684666885185675
C -0.8702417548449679 1.0005415740018924 0.5594618287645196
C -2.1016256840770766 1.45712655148709 0.7608399210498694
C -3.249514437561863 0.8148082591844595 0.06411111354089219
C -3.0381262343077453 -0.657315860976586 0.13873420121093008
C -1.8081938345161683 -1.1118910871805276 -0.07594805021518691
H 4.3682910829700115 1.6719670979825416 0.9440922818934012
H 3.9230534467187277 1.68616690533932 -0.7970517727127676
H 2.484562180853109 0.24567431335810846 1.4959257294984443
H 1.666396108499205 0.6843978804001297 -1.4132792559732643
H 0.721377154776824 -1.1232367144246242 0.9389485378412884
H 1.0183481813210238 -2.917891785599312 -0.5329838661212408
H 1.2913974859974486 -1.7955795279157383 -1.982229495038886
H -0.019306544869846703 1.4538007162319957 1.0569740054278145
H -3.1777879617951386 1.1450629330198432 -1.0129284290507756
H -4.211516824593386 1.1254460438606184 0.5089595547135679
H -3.8912016162736265 -1.286282791008947 0.363182316835415
H -1.6674234397494703 -2.190741293350736 -0.01837090293443656
