15

C -0.034475057820474574 1.5543451333451408 1.2426462549880881
C -0.35555119979858246 0.2279754873266062 0.7050881910059623
C 0.4946719211179519 -0.7538692264988076 0.8041953781508068
C 1.4789685374600914 -1.6204006290071642 0.5978682232489357
C 2.2848573695760335 -1.4339823813786035 -0.64079057872685
C -1.6151446196816839 -0.0018897621558006 0.05229327463328887
C -2.4717180351152352 0.9896449312544742 -0.04679394404940208
H -0.7702619131876038 1.8800239544227284 1.984746715115689
H 0.9597472039458789 1.5658078142267418 1.7173208672728637
H 1.8704305141443838 -1.9934906442849283 -1.4985925642290574
H 3.2810999082383487 -1.9059925926701429 -0.4252906469739942
H 2.4933913529477065 -0.3724829725592701 -0.8539324726869231
H -1.9111373162190946 -0.9522461895780276 -0.3703720313268088
H -3.4196363932204696 0.8331900773040204 -0.5331025582818992
H -2.2852422723873462 1.9833670002511579 0.3381692158404017
