27

C -3.2831858232385005 1.7585743854499587 -0.6071230026938286
C -3.347043142433004 0.8387792966116255 0.5706152097362607
C -4.707578947141683 0.4209002241846664 1.0106877374871652
C -2.2482056906060324 0.4207926027848263 1.186237604488656
C -0.9046052104195886 0.8370812814342262 0.7469417135561429
C -0.0498968200847268 -0.3713115883283617 0.34390491700910897
C 1.2854155065263508 0.18041196578737767 -0.08116467059402925
C 2.2379927766482592 -0.8434642994505867 -0.5049677989386093
C 3.5110118844156557 -0.5471525948976448 -0.6416353741843374
C 4.502056342176054 -1.538723457796424 -1.0635383033089878
C 5.770690837809944 -1.2160837200034722 -1.1926818152757948
H -4.202277097594047 2.382216779545626 -0.6719776608514964
H -3.1253011146405187 1.2145308447416723 -1.5552112198883354
H -4.590601684800594 -0.08176750599610828 1.9869287814581709
H -5.429542868456811 1.2338015608628061 1.0361377074562543
H -5.098672416677028 -0.344047811502095 0.29036142804846476
H -2.3317421783496064 -0.24354530625182833 2.0342193109858457
H -0.9319008772563003 1.5873417547836326 -0.05646507223222202
H -0.39301283102177514 1.3130876231691646 1.6171866171615372
H -0.49791944604009153 -0.8928249658139668 -0.5200070311721127
H 0.004500624242449286 -1.0598338781366656 1.1834331528091526
H 1.2137711027430602 1.0632455963903173 -0.7143975233486527
H 1.9081362290265178 -1.8396809704263497 -0.7068803815223884
H 3.8914576514315167 0.4632770934739996 -0.44452234189923834
H 4.189008918234623 -2.555047724972248 -1.2734584181020348
H 6.49302285365662 -1.9560248379762764 -1.504636851531381
H 6.134421421857576 -0.22453234767191257 -0.9976319597345659
