16

C -3.0394004613189742 0.41028612715137874 -0.5955670247917132
C -1.6948815751995185 0.6115010788290457 -1.1093619006545739
C -0.7388504103227337 0.7059063173532559 -0.1978965965482125
C 0.13931286318009284 0.6921718267902283 0.7659029477984602
C 0.6638107311832852 -0.6188905675188345 1.1408289601066277
C 1.9004180644232462 -0.9799035825436196 0.4392146180337855
C 2.4413831829419705 -0.1554198693166875 -0.4384401111527331
H -3.7752203995375226 1.1604199268933209 -0.881000616076537
H -3.4042393016296657 -0.6299996686398868 -0.6093643127086302
H -1.3315441967926849 0.6969447341295895 -2.0949160786651384
H 0.36398813906755134 1.651933348820278 1.16327404003217
H 0.894218506440029 -0.6054534706807121 2.2458520630944743
H -0.12524975451951104 -1.4170429823607253 1.0458113081074876
H 2.3981451917932937 -1.9208924620179155 0.619047078162047
H 1.9522177824055513 0.7882601465527502 -0.6261757313013587
H 3.355891637885524 -0.38982090344144676 -0.9762180891824658
