23

C 4.735616349564699 0.6003085231883422 0.3482784659281267
C 3.6855641694001204 -0.49731008028198015 0.19979843854379356
C 2.384251180239451 0.13668118540102261 -0.10011833458357561
C 1.2717533794373292 -0.5545859338762278 0.05733043650614901
C -0.02514179958547773 0.04500436639469886 -0.2307361431205655
C -1.1406456161415577 -0.6436297929657148 -0.07438678146395097
C -2.485358642801706 -0.12947164232467148 -0.3369938292956941
C -3.2824855679369254 -0.2896323487873006 0.9568699742685455
C -2.532743733038843 1.2808397424375098 -0.8131967821246125
H 5.726924099070516 0.0983955132592798 0.3853559663359126
H 4.736889874622277 1.1632621116513393 -0.6273178866631572
H 3.6840935343502204 -1.0483805149743028 1.1687139724538556
H 4.000080725863752 -1.2087948901508017 -0.5968430389478526
H 1.3272510001249676 -1.5824530895434084 0.40596216066721896
H -0.01088488041285218 1.073810488836702 -0.5750312025459817
H -1.0571461892643232 -1.6631969760828802 0.273336887254696
H -2.961807354125763 -0.805175722133112 -1.096717506817039
H -3.1187171382887056 -1.3330340032088002 1.2881488266112577
H -2.8623779419359874 0.45771359243140736 1.668788578118659
H -4.333318748180825 -0.061416213702569306 0.7240426686083119
H -1.8320404042371732 1.958097000483861 -0.334440762323105
H -2.3332554548415216 1.3260166847472958 -1.9230822340464153
H -3.5765008418816486 1.6769519992003363 -0.6490444719655302
