26

C 1.7016588418201928 0.3176650112522736 -2.810043915030002
C 1.8936583102628894 -0.23038216524146934 -1.4869799105956374
C 3.1119039104804536 -0.43299060918450444 -0.7220330514590523
C 0.7940791003391697 -0.603616157866865 -0.8752386769943155
C -0.3064205224254517 -0.8534641155290428 -0.2195240438302646
C -0.8505640325745801 0.21438227984208405 0.5339536922255212
C -2.1508873493729954 0.3939029971029931 0.6095455477640833
C -3.0318366043385097 -0.5205785348100882 -0.0926229711676551
C -4.334760830697042 -0.34615252952020686 -0.02085890455577416
C 0.04593544519019094 1.1527142271623911 1.2541914283870057
C 0.8576969889234491 0.34825268879354454 2.2483114806739812
H 2.4440036795683904 1.1090993308676882 -3.0888967743120546
H 1.6947069226222338 -0.5122186569521444 -3.5521414444467982
H 3.9738956400640766 -0.0052555769010805475 -1.2875004792994005
H 3.026592491389441 0.01344032186886923 0.2846440920011105
H 3.3098608685477857 -1.5388930190177728 -0.6759445886046633
H -0.6359235665559595 -1.8543409875953827 -0.3568311369339185
H -2.5596902686775773 1.2070313534666062 1.1835148008067606
H -2.6568069826088108 -1.3466333430526531 -0.6773706834716366
H -5.021558571807026 -1.0134636057928972 -0.5350996191937266
H -4.728609183955197 0.4644482839506539 0.5518907991409803
H 0.7398071985610093 1.6311913071487034 0.5399668739543987
H -0.5171980956153929 1.969287852400263 1.7491854397829345
H 0.28833508994513407 0.2917698828339551 3.1819971162108347
H 1.8645651752106809 0.8183690912043572 2.4071607550084977
H 1.047556345705683 -0.6735653264360842 1.8567241739367952
