15

C 2.2081452858203208 -0.50180699213232 -0.7903854866243996
C 1.2866694186731409 0.4461532299720482 -0.07270573356937007
C -0.10868182733651559 0.46088333890998445 -0.707367500684187
C -0.6852090145066763 -0.8863450625891895 -0.6448239990091306
C -1.7129406555309512 -0.839064898117232 0.17484304684850852
C -1.8831592693986008 0.5097881796463418 0.6984020810446275
C -0.9458991971096812 1.2590936223761213 0.18004214193573978
H 3.2591036536403335 -0.21368389367409152 -0.55382304518704
H 2.0755932336258063 -1.5072779284754472 -0.29683076012066295
H 1.1198961613158465 0.15406779830688586 0.9883349657017869
H 1.6516482325564605 1.4757313329456183 -0.0822103451120214
H -0.37959114375293274 -1.8043567685294006 -1.1499463328353785
H -2.352238408547048 -1.681911138464337 0.4324675092960552
H -2.679743992396545 0.8042082346999844 1.4082683664611844
H -0.8535924770529597 2.324520945125039 0.41573509185428703
