16

C -1.3754890586246964 -1.0803992976318704 -0.49465306403933357
C -1.1191859490073237 0.09125830476361645 0.42659697951368053
C -0.06191291723643042 0.9885478357845645 -0.10416495904965806
C -0.40685291367704524 2.2374086974694776 -0.34110147921875317
C 1.262438919102738 0.5534105378215188 -0.35440968648939847
C 1.4705080397797974 -0.6982734973173709 -0.0792516827589451
C 1.8816839259241123 -1.8218111232328724 0.44155257035453044
H -1.5896903504067004 -1.9751955091869322 0.10246922120694825
H -2.2244209039700937 -0.8299102392306409 -1.170646094276324
H -0.8076709317448848 -0.32836992691867734 1.4293412909626146
H -2.0358294734628903 0.6873346745013083 0.5730401521460691
H -1.3921064770829998 2.598252944901243 -0.16493456078842292
H 0.33331779655614885 2.9110270459240053 -0.7247568137794025
H 2.011299313918277 1.2111698406600613 -0.7347661403670013
H 2.264575896383775 -1.9375549874135223 1.4216114458478761
H 1.7893350835482644 -2.6068953008937963 -0.22592717926448555
