18

C -3.0271009021203725 0.8111247029178561 -1.3243181766428025
C -1.749921851031834 0.41216193543596935 -0.6400594980064038
C -1.722158090364027 -0.8031426775825481 0.2159558721152759
C -0.6717357736703601 1.163085336993427 -0.8206723320615597
C 0.5845979397211235 0.7524251289728071 -0.1348937867809297
C 1.4667953006579844 -0.019869154295399455 -0.9631470979526274
C 2.6375219194739596 -0.23406626639858039 -0.4314341373098129
C 3.670355316923102 -0.8357343860149752 0.08749855373092176
H -3.003895498339217 1.9018899927640152 -1.4494849919584374
H -3.9122984634742823 0.5135294811808275 -0.6955464819245925
H -1.6125511267306814 -0.4572251281259851 1.2795284189976086
H -0.8106630950506855 -1.4102347901457948 -0.01877584489898225
H -2.646952947743131 -1.3726853749135512 0.06417167067059766
H 0.29894214529857055 0.2930578899757108 0.8319531557409641
H 1.1014528914935904 1.7174883268776555 0.14063101605435518
H 1.1647175005778134 -0.3729086186746704 -1.9181204828852598
H 4.549794921195144 -0.29952911658718334 -0.053143382808541514
H 3.683099813194563 -1.7593672823849351 0.6032160802882491
