15

C 2.5060344136554025 0.36019675343201196 1.1106095365629647
C 1.6561650642189747 -0.5288465513666428 0.2755609218450781
C 0.8061202037282307 0.023707762021757613 -0.5487537200762718
C -0.11133031694609402 -0.7148011830331547 -1.4485331348893715
C -1.5301011669855433 -0.2742878868208551 -1.2871426115654778
C -1.9432669625175727 -0.12027249113282909 0.1336900032868258
C -2.1060255722999153 1.0572263150021985 0.6999765032192583
H 1.8979432618730738 1.2161071279113889 1.464558244949064
H 3.328319899627786 0.7556263921548695 0.4773886072147134
H 1.7866553739362256 -1.5939613731365987 0.39469923380040234
H -0.020276308142273363 -1.7989011253700358 -1.3774903074428393
H 0.19661257983471037 -0.4399791481481078 -2.499259713932626
H -2.1085036536542168 -1.0301610307344988 0.6962539714605206
H -2.4070305876983045 1.1009264310493618 1.7347000308192557
H -1.9513162286304526 1.9874200081711333 0.17374243474849166
