13

C -0.39613557701535124 -1.371059310385336 0.23695223573347296
C -0.435811810721812 0.11331732820255885 0.1417035126321142
C -1.6952330481998947 0.8601046279094342 -0.0009584923618005104
C 0.7179885988337131 0.7538101170163185 0.19008493644386198
C 2.016044842122324 0.08295556390758091 0.3309445594678648
H -1.4136676813681195 -1.8069331563887785 0.18206348727031318
H 0.13117037641160662 -1.6148137164501797 1.1856585637653763
H -2.523815519243305 0.4294336128344673 0.6242751683686171
H -1.526728194016258 1.9055931211283723 0.3058080817064624
H -1.967651814918811 0.8592683653966625 -1.0787246963525368
H 1.9900484056991916 -0.7929963875801702 0.9995306304839087
H 2.360237897342092 -0.21512729474323847 -0.6829726562649036
H 2.743553525074649 0.7964471291522923 0.7828099686112567
