24

C 3.8652332045787134 -0.20941001075727425 -0.18813998930626152
C 2.679889770910256 -0.6090176858555636 -1.03814297256929
C 1.5443474924339247 0.250434586938727 -0.6480080297004381
C 0.41267970379259233 -0.29877985504588633 -0.2544565816216628
C -0.7183238049514333 0.5520631916189753 0.13413594740571372
C -1.9574357203501414 -0.06341684895076027 0.5648362149034079
C -2.1182889671391836 -1.3430815252636374 0.6243829732901448
C -3.4199241663992193 -1.9308918180055032 1.0766273409400569
C -0.6298816577298636 1.8701607139229566 0.09955233976203574
C 0.5424772904304715 2.6587133609637554 -0.3082247711210901
H 3.5999830348315074 -0.029095402581672446 0.8556798436760762
H 4.68264825736394 -0.9541430665725975 -0.32619948629244744
H 2.9573261711970606 -0.40101529596747915 -2.108318478803082
H 2.444262424030344 -1.6952793233036982 -0.9136609285568957
H 0.36958191020148 -1.354671516998913 -0.23596035131549287
H -2.7878128486707103 0.5823332173885989 0.8502459194490304
H -1.3483221185607508 -2.030333122229186 0.36000220079647816
H -3.737674552782197 -1.360262300320604 1.9916908146497743
H -4.167493575132734 -1.7483002515160688 0.29647876161765535
H -3.32684935838167 -3.019341276474293 1.2895142385315894
H -1.5173044158710831 2.4472307303723624 0.40437302308861334
H 0.860424216441899 2.466362774909978 -1.3572129808048718
H 1.4117197060102948 2.455297285684653 0.34844195200588707
H 0.3587380037467353 3.7644434380432785 -0.17010780072692147
