26

C 0.23714051129973174 1.9143072613924172 -1.3691666467914023
C 0.05288767106344881 0.9520875316303236 -0.3055827100085803
C 1.097674289861693 0.7118241814201457 0.4210635076257931
C 2.197189895777918 0.35242732159265505 1.0697524802694032
C 2.9473030561252265 -0.7448656599552046 0.4901459917558167
C 3.934294101053358 -0.34255567703852463 -0.5281985654607423
C 5.23868705218905 -0.3356155917962386 -0.25458171474627966
C -1.133189047268162 0.20890232905493078 0.06954574129756917
C -2.0247991447597657 0.4352473610151348 0.9822551187514666
C -3.043185721650404 -0.6162875286544293 0.9722004012559173
C -4.37598490634984 0.00831619873446964 0.613009561419507
C -2.618865676097764 -1.5296243227484387 -0.10938993403813776
C -1.5094244503093015 -1.0292218732926677 -0.6167704970111797
H -0.591618436295033 1.777699444591018 -2.1225556347846437
H 0.0884103825190863 2.945512715904972 -0.9565764146148418
H 2.3491706957745717 0.9414844789132745 1.9254435975529227
H 3.5009969069769205 -1.2601137312947768 1.327398958094133
H 2.312159395804233 -1.5351688190790869 0.04329660883855269
H 5.613796976240048 -0.6271792951266584 0.7300338014626782
H 5.89075029354546 -0.02387732733113012 -1.069082947806719
H -2.0027635881481234 1.296149941442884 1.6558682170302241
H -4.177060276912286 0.7849053269555537 -0.15145348966154773
H -4.859309626889941 0.44504178417642287 1.5263502370137387
H -4.988469569101675 -0.7810571924809417 0.1543562291660169
H -3.1458159905401013 -2.428064837336333 -0.3992714504891355
H -0.9899747939087891 -1.5202740206897878 -1.437077549168434
