46

C 8.162312743251704 0.0918189028926963 0.367177355886235
C 6.977575690165684 -0.3338502133038761 -0.39565710815332156
C 5.99790959687169 0.5260617020164962 -0.6229051299898798
C 4.767026000918332 0.1771334050351243 -1.3843841580941778
C 3.6396822697084734 0.8932429367426704 -0.8034459517056758
C 2.444273583292084 0.4472677226299117 -1.1180127532878927
C 1.2969141162375146 -0.13226172370510297 -1.4324879122205265
C 0.8794516916737257 -1.1746016289358634 -0.54737179894327
C -0.07479970944387655 -1.0468536962218236 0.38440043528649764
C -0.8354318934751498 0.11286171438928502 0.6671863795472429
C -0.6276466511273512 1.1828734510678045 -0.011572820437034757
C -0.3567003202746576 2.2675335295535994 -0.6625558824392521
C 0.6357679302903957 3.164100928264677 -0.14175200839254537
C -1.0490682201067127 2.5054735242755477 -1.8561082704875604
C -2.370451481458775 3.21371315274511 -1.7905645212769474
C -1.8036509199857593 0.09503243779143813 1.6768639636951932
C -2.8337319988538523 -0.7042739928816305 1.4989812726239136
C -3.797705627866887 -1.534948594006898 1.2037228598334435
C -4.89994893153908 -0.9506251786517433 0.4596825215424471
C -3.601400929101675 -2.893427222565459 1.665848089392747
C -4.842116416164457 -3.5240918852398475 2.3144928060534644
C -4.332031048020652 -4.04696519287016 1.001878527536032
H 7.98358265306296 0.948607240631137 1.032685585630342
H 8.456441844324319 -0.7697216652892033 1.025410254957294
H 6.929544854966204 -1.3654907932683937 -0.7642957355804485
H 6.0907131922295115 1.5304495306516288 -0.23975657824690752
H 4.622327999318353 -0.9184265286027776 -1.4594559590082539
H 3.614536755447244 1.727431101424222 -0.15694841690287567
H 0.853962120488115 0.2564084468274541 -2.303157231680325
H 1.3898517216163988 -2.1317291024017444 -0.6593533358964886
H -0.21852087837042777 -1.9965099815174716 0.9454554904393203
H 0.25267108689080414 4.212814587089815 0.0489714062746678
H 1.1287110019329856 2.8054003980210687 0.803656933209451
H 1.465145432623249 3.349643791365846 -0.89051352068556
H -1.0500278541900279 1.6851244000222612 -2.5966990963390275
H -2.9399942214943353 2.7461015577734615 -0.9373370654288685
H -2.935864118167548 2.953565195300647 -2.6972036490437645
H -2.289072482613044 4.298654934281162 -1.6919706982461629
H -1.8830101507207468 0.6202552979790359 2.6048235677107257
H -5.4420114037985705 -1.7507871877652075 -0.12028925640022956
H -4.60262597122512 -0.1774670156571367 -0.2789970259057619
H -5.642507820374041 -0.5342516325102855 1.1725197095373596
H -4.708970899129501 -4.106583272471076 3.224931144447695
H -5.79569694607931 -2.9614642698973492 2.260700960924653
H -3.8117258550520026 -5.00958545182386 1.07141420486193
H -4.843689536674575 -3.7476536591846474 0.06858150083985215
