25

C 6.46600715646922 -0.7883608663619911 1.4430126011850266
C 5.599686175125989 0.4062393755770714 1.6267777932001244
C 4.376569564636694 0.47449491945764116 1.169835248399693
C 3.3002051770729213 0.5677161304815236 0.4428675063967494
C 2.444137957034744 0.6825397039519191 -0.5058406421179058
C 1.5312035549715752 0.899381407632013 -1.4067265544652563
C 0.12147209449803514 0.7834735731590936 -1.0423716203274087
C -0.29466519014693815 -0.11551822656588082 -0.17455883988257298
C -1.723638621388327 -0.2160993178428681 0.1799053825717634
C -2.5712063844820343 -0.14646849619736804 -1.0148657870146742
C -3.885627411612468 -0.168530672548513 -0.9415272640849992
C -4.5320047553257226 -0.2643433462646006 0.3530057537418012
C -5.838729244990116 -0.2859258291786273 0.4206905196614426
H 6.656392490240387 -0.8847561584290266 0.3355498113244883
H 5.970653185225726 -1.7291315564754401 1.747971121367775
H 6.018791524321228 1.2457852346418556 2.165336691600245
H 1.7472858391044745 1.166151887886718 -2.4323680745157104
H -0.5967097998396576 1.4562372676868238 -1.500101181097235
H 0.43192663217801797 -0.7728501432808167 0.26805240815141745
H -1.9148269854534308 -1.2107310390563857 0.6775801787784711
H -2.1158210067481247 -0.0747563462184567 -1.9891330811438168
H -4.47604192122734 -0.1147573819576808 -1.851866950360617
H -3.945719627138264 -0.3169832586855104 1.245790950633087
H -6.473454270667118 -0.23420984211631748 -0.4677288634465174
H -6.295886131859303 -0.3585970192951215 1.4089338421059248
