12

C -1.4988014353974184 -1.2774095608460287 0.2961997979621606
C -0.9413394921493429 -0.0114312331413897 -0.2128659802440121
C -1.4314692156580795 1.1300509475628053 0.22461413065088762
C 0.13999611958848493 0.05386477474289221 -1.1896037982706071
C 1.4061871850181853 0.20737151113606092 -0.8470706428857805
C 2.4828033453532674 0.14492233581188668 -0.09643784414096815
H -0.8730702192200969 -1.7592401361834984 1.0666191335492379
H -1.8684983900237193 -1.9474959419364009 -0.4789479891426736
H -1.0321119110939365 2.0851427427178186 -0.14030818728448843
H -2.2333483092087945 1.1185713765132905 0.9487853448934082
H 2.8826147144262673 1.0436530954394294 0.2955655567207852
H 2.96703760836516 -0.7879999118168608 0.13345047819205236
