17

C -2.9189913381871913 0.4867460371178069 0.49998728642508894
C -1.7898679139314633 0.26139710810018113 -0.4946660386587937
C -1.2240929056826293 -1.085912960657853 -0.37764816725394357
C 0.03673558608111277 -1.272485501486597 -0.07445416349760393
C 1.0124831252356925 -0.2543727002624047 0.17852787136994336
C 2.2884121555352026 -0.5491975606874521 0.4812300476222691
C 3.204538390771111 0.5868500083755996 0.7218549649221208
H -3.221247131789375 1.5583963904119207 0.37293381740083653
H -3.7524388553686587 -0.15355375279918848 0.1885887523396348
H -2.260526966012954 0.3357454453155868 -1.5262605289595992
H -1.0308204637047034 1.0387983398629186 -0.48092796107709335
H -1.8734102960725965 -1.984687458107138 -0.5491521015673088
H 0.4315145281187841 -2.3167519531564382 0.004945154567447635
H 0.7513633901854495 0.778502980062608 0.1361366573937413
H 2.890228582707321 1.4989501075507705 0.13415588796001543
H 4.217327189473079 0.25013150073801504 0.34751134941263156
H 3.238792922641794 0.821443969621702 1.808224818227809
