25

C -3.596087189687122 1.9627700080666297 -0.2650823798455857
C -3.0825172211963165 0.6120717089808229 -0.0937425617192314
C -3.9911089941131834 -0.32114063979485724 -0.23332022310645456
C -4.862935080244613 -1.3075513314827765 -0.3639175932851903
C -1.7329665249965873 0.1801100813022056 0.2029148364440712
C -0.7313401528866634 0.5925044908928827 -0.818662410145124
C 0.5165342677902124 0.2153454847130947 -0.6444552860377171
C 0.9381582121294592 -0.5759356680415748 0.4925411225975635
C 2.1590131823187453 -0.9664362779436501 0.6974999059869555
C 3.3166415195212227 -0.6798085755947066 -0.17531618415989292
C 4.309925349908999 0.07431091610657285 0.6355877547987879
C 5.3605516365194 0.6816857330092566 0.13123836212790596
H -4.5888444237741 2.1499181405695844 0.17542842574495535
H -2.892760513805829 2.7693738761725193 0.03240637292465687
H -4.945538305240121 -1.6658441860645703 -1.3497458987781772
H -5.331991956169468 -1.5732792812419754 0.5396366284628604
H -1.6536882215233082 -0.9038650574747229 0.30189569013356793
H -1.4123140857306233 0.7086431568693392 1.1478479665926768
H 1.2210030224470665 0.5282685936561724 -1.3996113345298806
H 0.1669123745056297 -0.8600851480414919 1.2253165709436238
H 2.3996936791783896 -1.5680033492530476 1.5900200579759902
H 3.081259412285097 -0.22495918875912418 -1.1348572384055524
H 3.805203619469844 -1.672407557550181 -0.3952568485117606
H 6.016876320495754 1.2007697024893895 0.8158573785070569
H 5.530320072798305 0.6435443684141363 -0.9257271172009932
