13

C 2.916198952436371 -0.41341035111236135 0.16686614245586304
C 1.8921485756917134 -0.42296468290046374 -0.8873338044778272
C 0.720402904509738 0.13143550379811078 -0.754365916337877
C -0.45982882620544824 0.5384715882408251 -0.3692707059985327
C -1.4140419279346461 1.523719292666177 -0.20668086912546157
C -1.7755325281709498 0.31829946228034284 0.21432904814309084
C -2.749778338478337 -0.6296524270152104 0.8251788769201793
H 3.285855040184714 0.6216494518843899 0.3320208518425811
H 2.4148763381532716 -0.728292831378274 1.1136693250111633
H 2.0789908375573036 -0.8975693932832242 -1.820437283234819
H -1.789825000683636 2.5479637821438064 -0.28749890203072326
H -2.9389421388242853 -1.413484513892741 0.04363395094077265
H -2.180523888235826 -1.1761648814313788 1.6298892858916056
