16

C -2.0888854759204425 -1.1753170613823825 -0.16987223877226076
C -1.3235635053596666 0.09015673978089127 -0.5002340469763095
C -1.704992482052313 1.2323576869392883 0.3597945208055236
C 0.11801924984916067 -0.25991574871216533 -0.4543716450118083
C 1.0147245302619292 0.36731277496867615 0.2763321150354086
C 2.436589966926196 -0.06582737454476817 0.2485831977995393
H -2.085307522027543 -1.414607559984519 0.904746330830405
H -1.6018887394467447 -2.0121315812770457 -0.6995615678417972
H -1.5517653319369435 0.3265797525557728 -1.5719792406680686
H -1.4947771449463907 2.1760168738104837 -0.19335570324185447
H -1.2259176191824732 1.292825200490164 1.329585221673815
H 0.4163306437661551 -1.0955427203498642 -1.0790678436547783
H 0.7700788755383863 1.2021006817109319 0.9128780779608144
H 2.4164457393616052 -1.1842969263964649 0.16634720373698425
H 2.9074299108607744 0.29263339774809805 -0.6817428799326672
H 2.997478904308308 0.22765586464288043 1.1519184982570545
