38

C 1.4537963365285358 -0.9314269056306514 2.2128365387087743
C 0.7679799395318593 -0.356330142559614 1.0376012708271953
C -0.3928673582376143 0.27959163117776487 1.0859288845841852
C -0.776087308369834 0.7146507586518799 -0.25730254997640833
C -1.998889466402687 1.095050909449735 -0.6160134716782699
C -3.111925370033611 1.1141480844100338 0.33241257254484713
C -4.222398263780245 1.97922671008198 -0.1264810879486386
C -5.334210156005041 1.2727136049493153 -0.16990369750432138
C -5.047369287066783 -0.07056559285657373 0.24487098350139389
C -6.059562984639018 -1.1963512722047576 0.3330039461044803
C -3.768891587332262 -0.16868753225723707 0.5356791261845674
C 0.43592331562925446 0.6474208312105216 -1.1095361223473894
C 1.2593218490391376 -0.3929147294552998 -0.38612078509112113
C 2.711128718433303 -0.13004470409310975 -0.466160292817123
C 3.4698152437704493 -0.7131872410570798 -1.5982284319769526
C 3.3509684941533506 0.5958304843874123 0.42161459296679277
C 4.765241594602891 0.8426305675005835 0.32963493900704643
C 5.538301636504412 -0.2056859360287546 0.3920707675846718
C 6.251774061549915 -1.307607393262202 0.46247428415666814
H 2.4877852273737515 -1.2143538522115576 2.02881556465666
H 0.8273942333523974 -1.7888943601288714 2.5706139118897706
H -0.967127365119759 0.4465057710162416 2.0013867351547994
H -2.1686328083465916 1.39764144379156 -1.6391610708942959
H -4.180499202730995 3.0231959690155654 -0.3939718907668778
H -6.329982584889433 1.637577169519555 -0.47271237024116847
H -6.694131158150917 -1.0699594802451542 1.2451861749314417
H -6.730686449902074 -1.1995601712533268 -0.528704524255073
H -5.4979178944779 -2.151664858321609 0.4031855117040943
H -3.3042639409831778 -1.0800081510116217 0.8730179092027434
H 0.23149844099047598 0.4096429108551729 -2.1494044162105683
H 0.9935947050571287 1.6153641365193017 -1.0352467440685766
H 2.7803613280082944 -0.7854164393463692 -2.4719114023905293
H 3.8578885184598257 -1.6867525016067564 -1.282962624575202
H 4.332638549887722 -0.06479488343655099 -1.8526170920199267
H 2.8182628917454227 1.0368251833362065 1.264199363689823
H 5.270018806387783 1.7614353681999189 0.21765598605951808
H 6.537296411000164 -1.5865331635005857 1.4410738468488515
H 6.4444528844661075 -1.768712223605429 -0.46873674631934636
