12

C -1.6299073118291136 -1.2580726700353115 0.15928527385473024
C -0.9342429800929052 -0.038626838518531076 -0.30238180858730074
C -1.756775156699499 1.1287980352648765 -0.6859171572039846
C 0.3568132226829809 0.0006586603116647375 -0.3670640405587324
C 1.6396880902852355 0.12060092698845426 -0.18603503813395506
C 2.886972026018926 0.21311303624688463 0.160585953398245
H -1.846744592454556 -1.103626990122468 1.2505193493403024
H -0.9552808674065082 -2.1464655011749363 0.12058368327671169
H -1.837407285305607 1.7665838647624434 0.24134032993428442
H -2.7675617574131075 0.829525231674789 -1.0012655552505094
H 3.278902098125663 1.084475550324583 0.6561215809166049
H 3.565544514088432 -0.596963305722461 -0.04577257098639865
