48

C -7.391580156611344 -1.5641824824881696 0.9383334077226001
C -5.966146490682135 -1.927195294653294 1.084739860138663
C -5.188138679298498 -1.2327593048388046 1.8650616211658304
C -3.7552510864680175 -1.4805624241702802 2.1041288559729523
C -2.9825164923796352 -0.8434404451524019 1.0332400987178127
C -2.1961095296698057 -1.5133999729142216 0.22264578791185277
C -1.406464465345461 -0.9236259742116629 -0.8624053153281388
C -0.5453906664855925 -1.7101789494342463 -1.7340312791068195
C 0.6928248821079999 -1.382220568860917 -1.951782421434538
C 1.9688089231959804 -1.1489772427099307 -1.876580218436549
C 3.1832837727017154 -0.6972988674500203 -1.8727810655514627
C 3.8341399800068965 -0.3142546103955334 -0.5942138814172705
C 5.197237046776265 0.301109393074435 -0.8384191302602447
C 6.066304108139425 -0.664080907320577 -1.5293383848399018
C 7.1937405777220995 -1.117473686919824 -1.0611164621048312
C 7.739433477819039 -0.72686861683889 0.20804802849414644
C 8.897817791714562 -1.201000301658712 0.6743928452732828
C -1.4540425876496514 0.41957768475229196 -1.0973122010811753
C -2.275659664804517 1.2166449574119405 -0.27827125682749965
C -2.4624972353639407 2.60532447161862 -0.29355022670827857
C -1.8891448891848008 3.6241392531693517 -1.2349175042408187
C -3.292797636844542 2.890269097817424 0.7401965655161592
C -3.6348485009211795 1.6332167306360355 1.4235574099392792
C -4.510810092251949 1.454929827350739 2.6092607742196763
C -3.029023120896125 0.6274722090490515 0.8177912828183763
H -8.033133051446612 -2.343639571303472 1.409929259581641
H -7.625824876908192 -0.5480367401258153 1.3067241007838215
H -5.578240613967634 -2.768264943120484 0.5420975689436326
H -3.41615258842577 -1.1403183832059183 3.1031635044770454
H -3.580702729723186 -2.5801189188713556 2.0552402042328515
H -2.097810193394262 -2.595185853763353 0.33565366117240997
H -0.9138952673649705 -2.613789555828472 -2.241342624143503
H 3.7591625490400364 -0.583361686315715 -2.7795304840435464
H 3.195955702797212 0.4713723342651851 -0.13935211535093045
H 5.579380440515901 0.6748914169471742 0.11971335364722703
H 5.016572198678005 1.171361138449872 -1.5226154757451504
H 5.731596479975833 -1.0232211030377276 -2.5121879061945127
H 7.782167400038694 -1.8437250927525601 -1.653478727785638
H 7.23607086275759 -0.03229712297541116 0.8415927353629226
H 9.410179382717516 -1.9122125082814712 0.023416246316606198
H 9.312318676482674 -0.9175806217133893 1.6157406580357776
H -0.8693397070939192 0.8399359801331899 -1.8950197814878829
H -2.452106845080941 4.566974855402753 -1.2050157774979824
H -1.9020099569884332 3.226168130177122 -2.270099646042806
H -0.8347489607214832 3.8539756723342693 -0.9878888751857755
H -3.6240539725621352 3.878657858598363 0.9887375943987846
H -3.8516650696299792 1.2030198334346534 3.483827638554751
H -5.036889126095391 2.3909411228243327 2.8840177394218305
