15

C 3.106402163565921 -0.09209669726096034 0.6656429147960937
C 1.6516010258470255 -0.3172632117009187 0.8300164998945048
C 0.8722067899940857 -0.020794735022773292 -0.15956347687650166
C -0.5170489665978214 -0.12355724148612095 -0.292635795088983
C -1.1402226521210126 -1.341789016715109 -0.767085755764755
C -1.2571666961022225 0.8952829869178912 0.014295783821758916
C -2.010027977427659 1.9442366552014578 0.13664013477190565
H 3.4261885951077433 -0.7409985430845712 -0.1964377395838256
H 3.2143019906668218 0.9638653715436558 0.28051343558400393
H 1.2693369176959828 -0.7162530542950236 1.7511937311182282
H -0.6209630013525532 -1.8489923672385848 -1.604723489751125
H -1.1796416440969697 -2.1173167495892304 0.05262231430333811
H -2.191067620458303 -1.184730100836209 -1.1440479749789672
H -2.209018591388602 2.5982405710263943 -0.6488855278286838
H -2.4148803333323405 2.1021661325402325 1.0824549455830528
