16

C 1.9910124414282322 -0.48112461780709026 -0.5104006929506261
C 0.8220313171537559 -0.5160126085316912 -1.4246652356042104
C -0.2455667217855322 0.49072962689612054 -1.0768359112737946
C -0.8014508124991703 0.2930815201511199 0.28521227753966066
C -1.7388280707988726 -0.5975901188526357 0.5742378247992989
C -0.2803275042504961 1.1396573971866208 1.389981053485212
H 2.015430578423118 0.33165044206325045 0.20852663064349808
H 2.359985539775753 -1.445504426116473 -0.16485054364572974
H 1.1464362548342544 -0.30284545004416985 -2.457411953838053
H 0.4232061933153138 -1.561939502016665 -1.4308801254082493
H -1.0035637632595047 0.5395929325881846 -1.8653167099834536
H -2.1389455607591215 -1.2339380996609106 -0.22513806626702798
H -2.1265660347066433 -0.7245432740048908 1.5636136562242888
H -1.099567653039699 1.4593727684723874 2.0703428278855385
H 0.22731132537955104 2.0474729291188565 1.0511602954342847
H 0.4494024709793278 0.5619404806695275 2.012424672990423
