17

C 3.338041205852581 -0.5581382810643059 -0.7085699433272725
C 2.6071968674197947 0.08761508570630544 0.3366496360197524
C 1.324314595702321 -0.11241022644217273 0.29092306227483333
C 0.04629530246908128 0.06486011835498325 0.1612912232011754
C -0.8402812400031024 -0.8603707136231845 0.795953250269401
C -2.2621295491718514 -0.39169787676711704 0.6316114451189027
C -2.1679205478531176 0.9440792412342112 -0.050374817815434056
C -0.7425500708652157 1.0654381179836052 -0.5357286018186467
H 4.041670396552022 -1.3134562807631673 -0.2541782737113545
H 3.9889728138781066 0.08893769769478191 -1.3373720601570873
H 3.0945069453942495 0.6744736413616772 1.0720363311591625
H -0.7716286384166251 -1.8789949092545406 0.3668120741910501
H -2.724171095700115 -0.22648891210626013 1.6205747788316132
H -2.871412492346282 -1.1189812467532867 0.06673115913207586
H -2.4095310884943046 1.7945069082328207 0.6397639989972707
H -2.8882106200636573 0.9539432774589583 -0.8940028053885856
H -0.763162784353875 0.7866843587467264 -1.6268915818693697
