24

C 4.249330105953639 0.8867536348204749 -0.5403414078699738
C 2.9234510680612016 0.15133693454839403 -0.5881560916844958
C 2.0325638798200085 0.5751234259293528 0.5724690513101006
C 0.759736936111237 -0.2088123452332356 0.4253021275171935
C -0.42649348211576726 0.32704992567320657 0.2694152625829004
C -1.358814462114206 -0.7845085245824889 0.16956995318234905
C -2.661168923269501 -0.6639861487465921 0.005361116803013173
C -3.2757954916872527 0.6458810761918053 -0.0906587147095355
C -4.598844625137561 0.7409258078251494 -0.25707804900630565
C -0.5697287519513099 -1.999748939200476 0.2859604713559951
C 0.6869849593116657 -1.6488889723624143 0.43751871490516486
H 4.6074047679547725 0.9848381952073276 0.5088148800806985
H 4.068902792137799 1.8905877002546791 -1.0000677298438008
H 3.065860590424388 -0.9515249631145482 -0.535503727306515
H 2.4145405392188697 0.45203862301788567 -1.5270345410375217
H 2.4900097954123472 0.3369700286887285 1.5454716255823286
H 1.8454164110009692 1.6582275507284139 0.43903122857601706
H -0.6745730263981767 1.4012923033501856 0.22255087331246354
H -3.2550702615797644 -1.5548664030764303 -0.055529856478565606
H -2.659288398780422 1.5357888643357163 -0.026924159681105654
H -5.188122243598732 -0.15604779252534565 -0.3173126019400871
H -5.02161394033163 1.7327894321565245 -0.32445687950704877
H -0.979834435349269 -2.987673198244867 0.2494172817797371
H 1.5251461969066082 -2.36354621564141 0.5526205387197799
