30

C 2.132987249004552 1.7240758982406383 0.12371282986033069
C 0.8943216974818793 1.3616598474873591 -0.7198753351696325
C 0.955163527825865 0.00031566468774742125 -1.19847430475716
C 1.6820457305457148 -0.9129680077951159 -0.5597753687545253
C 2.4401285060523668 -0.6186176404402681 0.6227883565717023
C 3.747540377642455 -0.7506674648530814 0.6424156742317669
C 5.013763109326165 -0.518629520297995 0.45042092338675815
C 6.236664857945749 -0.09367214531553941 0.31387725358806023
C -0.33186059558225334 1.7140417955461267 -0.01671493985729784
C -1.3749673171202839 1.024164024326434 0.2527465538107605
C -1.7186795315878736 -0.32454276353233985 -0.031120338215058278
C -2.9191822766891287 -0.7990860547730366 0.3854962310939668
C -3.4133305956728113 -2.1491503966207617 0.17315199474731166
C -4.630748872170915 -2.223833642843575 0.7307381181122672
C -4.987905650870188 -0.9523348281794735 1.3242291738534673
C -3.9621953555394183 -0.10752007501511214 1.1143399017108533
H 1.8925673733787705 2.679676460560375 0.6131961986865683
H 2.9862775359753067 1.7766196450020502 -0.5542288334581016
H 1.0280267074434564 2.0240450263781073 -1.6322832341423361
H 0.42044712865770034 -0.27761332492939483 -2.0990287365460096
H 1.9714881266211002 -0.27486968921246313 1.553135048462341
H 6.8978569748572935 -0.2210397978156667 1.1851021778363064
H 6.609161377806043 0.36021822088226824 -0.5862840401558427
H -0.3247808597576745 2.8042430137579077 0.342006212383736
H -2.1651599107242676 1.593772015723363 0.8198301908194554
H -1.099157223568739 -1.0570101689769476 -0.5716369320079503
H -2.9004168286178995 -2.949089835733505 -0.338104902983839
H -5.264461066427763 -3.1008397255176794 0.7423955463556239
H -5.877456644656252 -0.6577502888679515 1.8476909150917455
H -3.938137551578453 0.9264037581276442 1.4464918284242698
