25

C 3.2575781898297946 -1.8860262178554448 0.9687940133714957
C 3.238797026574859 -0.6604069326875516 1.7147352442938546
C 2.9699044083072903 0.3826066691584342 1.0108945639875446
C 2.915283766082472 1.551960327272507 0.42605491521816957
C 1.6252278618835578 2.029528604508265 0.2833753353203229
C 0.9116332151748279 1.3926759849232577 -0.5889699257084041
C 0.10711119452435551 1.0260472395609193 -1.5362164641199882
C -0.7468727243124927 -0.052021335624234714 -1.1725060886438448
C -0.5554818521882814 -0.6607746166339353 0.1487555409128358
C -1.761554804166392 -0.8378530917790871 0.6458199895545335
C -2.7731996402779924 -0.37300091867474555 -0.28578919261902436
C -4.248468429660285 -0.4380875179764272 -0.010942885490053853
C -2.16845517946077 0.08863748839592553 -1.3547460632640769
H 2.486902659057052 -2.040339197182193 0.2168962231002594
H 4.283649454571254 -2.0591813287883736 0.5601834379159352
H 3.4372610495311955 -0.6922008728349068 2.74892010677226
H 3.7713839518078194 2.0727149921798675 0.09818957248772933
H 1.3065605803321123 2.851466785712886 0.8690095915803523
H 0.06414232331642188 1.4650544821556422 -2.499449117245387
H 0.4064130422552882 -0.9157024021809221 0.6232469543621096
H -1.9278885741929985 -1.2825766733735458 1.6384182363035225
H -4.784858775706396 -0.5739686418936071 -0.9672701766770749
H -4.456991342776825 -1.3293002953649127 0.6266633349609134
H -4.6034215657077695 0.44587382673323495 0.5433141615528927
H -2.7546558348012002 0.4948736422492336 -2.195496209268654
