17

C 4.023301612446078 0.4483608153479659 0.5426226623760944
C 2.844495553385505 0.7251227571029236 -0.3888498779566923
C 1.970746634926541 -0.45543195728122865 -0.3412002126586065
C 0.7265649093753781 -0.32843085963841245 0.04397930041389978
C -0.561261829611823 -0.3643182437030768 0.06497958921043305
C -1.8390313677205163 -0.4508599136029396 0.18881295288463154
C -3.097982597871661 -0.7709425053529568 0.0730789169708929
C -4.08991862990299 0.3069287838954745 0.13599618147779952
H 3.6799272561299023 -0.1013835849512998 1.439753788928704
H 4.838224317306204 -0.08256141018070265 0.004573710947876537
H 2.332759920398756 1.648677635655387 -0.06441893700710152
H 3.3108341106983645 0.8685549704511115 -1.404112113201584
H 2.4021317625783003 -1.408427883619974 -0.6342886742521953
H -3.4537885411217712 -1.781187687813625 -0.06617905263336031
H -4.241492043943998 0.5642484961445432 1.2146779399093834
H -3.751015653476566 1.2167972634670376 -0.3791664336555452
H -5.094495413595708 -0.03514667592020395 -0.23209173577575956
