35

C 2.9530289693203158 2.3450956871607382 0.1861019314110942
C 2.022683371846967 1.3984549510791808 0.7525020369927214
C 2.179515849928674 1.1243114253040207 2.0383316695245406
C 3.0955638932352363 1.5777610519493046 3.0024025641421606
C 4.084664490344404 2.4199831109162004 2.907520034625658
C 0.9264790373213099 0.6994230465495161 0.051832515632468025
C 0.5297827434375758 0.7542600374200559 -1.1635142276123585
C 1.2553623072901297 1.6762675342413762 -2.1298473801428432
C -0.5724145646489874 0.026783418877778173 -1.7392782680228454
C -0.7987928613793489 0.2343768084865904 -3.0687255321245206
C -1.5169232990457642 -0.9063574915956356 -1.1595380417066246
C -1.6704322235389875 -1.3757998470291013 0.030737331886763405
C -2.804920325510082 -2.322350456431623 0.125003469554725
C -3.2471539533416984 -3.0290031727468 1.3272317242045875
C -2.633047010407486 -2.8599713909979627 2.4616536951921306
C -3.3355493590290677 -2.4032405648413357 -1.080054172566707
C -2.6075282950863117 -1.5467966139291949 -2.002095984503736
H 2.8131366431094977 3.392881752072995 0.2818629555693018
H 3.9098530124909026 1.957109765959763 -0.12918915610457812
H 3.0075837709760007 1.1741410032114659 4.069801958199059
H 4.736861921207534 2.6909698593576197 3.7617229632118168
H 4.342907306714255 2.909860431526024 2.0047624665810604
H 0.39779823659063784 0.022721486301730365 0.7482636215299983
H 1.9563366233080965 2.3379938203202846 -1.668005426052833
H 0.48161652863473003 2.368271641061584 -2.5940003623269052
H 1.6934212870629546 1.103624298138297 -2.9680200148787796
H -0.17355939879736765 0.8946628350655814 -3.586794170113363
H -1.6223729344664402 -0.29634290219879356 -3.5351280484669774
H -1.1026945623797082 -1.179409071771783 0.9506849771844539
H -4.084635211171677 -3.6865641522652695 1.254269899365824
H -2.928531454821088 -3.3659148971381003 3.381561582809618
H -1.7744302876570777 -2.198275535271462 2.5795028324899265
H -4.204384243397571 -3.0340006130940607 -1.330568871375577
H -2.0502850183502805 -2.129433124878615 -2.767520383308277
H -3.258940989790687 -0.7754941308101934 -2.4148949917241516
