24

C -4.232313052142806 0.40950633911377404 1.7722600548605911
C -4.202419383371914 0.7094591566761869 0.3207380984907634
C -3.1032094850072776 1.046766813597175 -0.28810942212941626
C -1.9481207597808112 1.1619007193046778 -0.8759277661037848
C -0.8096280731532367 1.3533329868228248 -1.4596335974122598
C -0.6364461430039338 2.4679035552497566 -2.4114484801269147
C 0.31463374345217787 0.47722171283874165 -1.1891532101267706
C 0.5148855586877085 -0.020489277303995836 0.0150822290054536
C 1.6128139357323241 -0.8875737490883261 0.3181104895635762
C 2.543111923377607 -1.6070473500043216 0.5766225481481783
C 3.68082251999292 -2.4949184140921026 0.9195477986222607
C 4.369345178383896 -1.8439789570260867 2.105926860788171
H -5.158553396946081 0.901912678319928 2.170867435823231
H -4.375648895476998 -0.6848800481319087 1.900747405132862
H -5.133749826436778 0.6382279274321568 -0.22222772334306154
H -1.315566412651806 2.41427245870909 -3.2843813047900836
H -0.773707160993692 3.4334903805324006 -1.8483584688036006
H 0.39312417741547545 2.503881006829531 -2.823545687984175
H 1.0314465313577779 0.19707727789617932 -1.9588311482229654
H -0.17997926848771784 0.24081948712701184 0.7959607353440421
H 4.364494357472913 -2.614167129889589 0.07054134965498154
H 3.264990446505575 -3.494902706924866 1.1813816372390946
H 4.448196056157921 -0.7647018145609058 1.8634743214653535
H 5.3314774289271725 -2.3105027204008217 2.3503558448762627
