12

C -2.4563926359144768 -0.056648121588329534 -0.9905778295924073
C -1.54701128525797 -0.9371929152981687 -0.6984144933374267
C -0.18573476489594465 -0.47876922897500795 -0.4611285750754983
C 0.05234823490995883 0.8036774486570858 -0.5550131651258672
C 1.373443212622437 1.308443320183001 -0.3314821391383068
C 2.424186934476408 0.6034788146503186 -0.029073361324397924
H -3.4962534438628223 -0.24534468489703756 -1.1900244696730369
H -1.784309475315881 -2.0019442860025545 -0.6288535528136409
H 0.5799995455056076 -1.188007636453861 -0.2187450154216013
H -0.7246583760630452 1.5251088583112737 -0.8011006209748633
H 3.3654282349755187 1.1247724437433366 0.11197319399854519
H 2.398953818820507 -0.45757401233007494 0.08514547430172474
