13

C 3.558318149737381 0.9030127884493668 0.21257906781129499
C 2.4680617302002688 0.33700677240478866 -0.22061942563284426
C 1.241989313194191 -0.011852415062355525 -0.5742670070875606
C 0.5017535569489328 -0.8648266902151331 0.34308295137345013
C -0.8119815244746976 -0.7452585594398852 0.3893654291955709
C -1.4937754553794447 0.21874748166496757 -0.46007920578511663
C -2.8045010269583215 0.319446818017311 -0.3958866085693055
H 3.4657740718601118 1.7337609928241806 0.8973989582825214
H 0.8873774826660793 0.35853125876255504 -1.5042017315763578
H 1.0356940380567443 -1.586559618701011 0.9761346708975109
H -1.3477502291742829 -1.3953497861285786 1.0850049644471917
H -3.316470189675358 1.0280666385642214 -1.0189535788189223
H -3.3844899169987936 -0.29472568113908537 0.27044151545961165
