10

C 3.4959523079945245 0.36738392086108745 -0.8042646625436517
C 2.385360896482601 -0.25379455545768675 -0.48531205651021797
C 1.224760413532433 -0.7189094864311515 -0.15395211967251554
C 0.010621630590851434 -0.9710999086691955 0.2366753527199755
C -1.274374467094585 -1.0987131785070003 0.42282253636997036
C -2.1846922137700133 0.04643055403809605 0.5936243617353075
H 3.5376176624829547 1.461780353339348 -0.8686634590538587
H -2.970782195958532 0.11103468532138544 -0.18513366967463427
H -2.659822239736195 0.08418232553281042 1.6028772257943775
H -1.5646417945241373 0.9717052899723163 0.4718497422332743
