16

C 1.39729222017722 0.24252879043967054 -1.3245937196190585
C 1.7936027938019194 -0.975529286582727 -1.0273325111068214
C 1.7769796356348757 -1.5476801666632631 0.2858851250330872
C 1.3892835191350077 -1.0166481171083943 1.4007343500647198
C 0.8654571089901517 0.3635763381081436 1.4976027766360407
C -0.4710222793425088 0.46948509994331394 0.8648590687111789
C -1.5542966529491404 0.5454327908625457 0.33513517819351313
C -2.878159997635873 0.6586148046866945 -0.2962222305983131
H 1.4326693145332403 0.6170691414140481 -2.3260450964861503
H 2.168941050931981 -1.616398339207034 -1.8362637121632324
H 1.445838073406563 -1.5972989043828365 2.305836408681344
H 0.7718274592586297 0.6681991567909019 2.569783652154254
H 1.5212871782643462 1.0890196425279426 0.9805599346160688
H -2.8198245650438216 1.2033997457062344 -1.2627585223762552
H -3.5116080524980817 1.2265340831054516 0.4095111455798555
H -3.3282668066602006 -0.3303047796384375 -0.5007046004298573
