16

C 3.3861069776884016 1.484815584063558 0.3874715965691016
C 2.868418674080273 0.3349849687784896 -0.006296510238094211
C 2.024000988692642 -0.45367523217957795 -0.6310720058598054
C 1.1085725956434533 -1.2365513181007224 0.17041021048736135
C -0.1636772714735952 -0.930160260042052 0.29550336145222617
C -0.6620621151212432 0.25944643940034035 -0.4139452478801653
C -1.954162975985344 0.6047890465486637 -0.3111233234012076
C -2.9064452295526193 -0.14011324128722977 0.4733506609039637
H 2.773761423355876 2.3621296614309313 0.6022214271075126
H 1.974754926455918 -0.5471537291935614 -1.6984809941601284
H 1.4888532585504144 -2.1017997318788426 0.6816373296884722
H -0.8395499129863359 -1.5041616876535477 0.8843994252885773
H 0.01738917370110993 0.854325158514866 -1.0186202647962106
H -2.2673720175699033 1.4855788088674975 -0.8514056610111718
H -3.6317344012369523 -0.7521291626098523 -0.055568617593303324
H -3.2168540942421053 0.27967469534105754 1.4261945453125906
