11

C 2.7513976270658445 -0.2445615951420094 0.3134767507503948
C 1.6557417932605858 -0.6938760068720512 -0.25656634887273405
C 0.397671746025177 -0.08252745523019042 0.06716034746156524
C -0.7671460119694413 -0.46026675422561436 -0.4521303383401476
C -1.9859889374749733 0.2643115561754318 -0.023682144776268975
H 2.739991680989381 0.5741528012110899 1.022090474357873
H 1.7367358014383718 -1.5099867127103832 -0.9514596183802683
H 0.3972438544501135 0.7478153052114201 0.787668018782124
H -2.4192891489785824 -0.13170883905665937 0.9174141009187189
H -1.7886406497284848 1.3609479694093245 0.12365220985693542
H -2.7177177550780005 0.17569973122968033 -0.8541081168339898
