21

C -3.3424619247019463 -1.3530078414795297 0.7770360276259513
C -2.2418430967672682 -0.7686513870578172 0.36298950406357416
C -2.2752127810148046 0.08376980900746533 -0.8427709917085031
C -0.9787271932565003 -0.9653495551387117 1.1019309675705993
C -0.5109617782118181 0.34444270185341347 1.5595581720726364
C 0.33818774283209074 0.9611138226879596 0.7797291778569717
C 1.2531801310250783 1.458276479213955 -0.03463077471175984
C 2.588370907992761 1.0734346394243737 0.23951018995142634
C 3.174255910218307 0.2865851113066906 -0.6248134410977702
C 3.686617423403573 -0.5067629702215874 -1.5510426672803999
H -4.278039928786736 -1.221870946637715 0.24988566884890465
H -2.5132091804584507 -0.5293778471843134 -1.7612013270860425
H -1.3642176228263525 0.668222817899554 -1.0009443321062823
H -3.1162989984333542 0.7998948452445881 -0.711081190076595
H -0.2514410867706745 -1.4799930631903673 0.45007450734629517
H -1.1788410685449202 -1.5954338073766157 1.988578398366383
H -0.7575707815825533 0.8681815621269384 2.431765077580315
H 0.8439004019349803 2.077677731869161 -0.7809304824174819
H 3.216763442039913 1.3354708088635512 1.074578317247598
H 4.174659336071123 0.0011667988007455152 -2.3370769456046228
H 3.532890145837554 -1.537789710011716 -1.3711438564413974
