17

C -1.7920957864781044 2.087457580093443 0.34453859377039586
C -0.6077048323417455 1.5653350103074375 0.12900704179999853
C -0.39876455726486076 0.1887176622537559 -0.38874317546180753
C 0.7807026861586878 -0.3739830687166755 0.2741173608174884
C 1.9412566996851255 -0.049150790560884776 -0.22945271161687478
C 3.0646428607955705 0.33047416019994014 -0.8012061332057019
C -1.5781589219944967 -0.7095774621338484 -0.09123255775967387
C -1.3125076309006487 -2.094698862374475 -0.6392807158238007
H -1.9631629932761734 3.06945456167488 0.7142688606062807
H 0.2725532394194273 2.1599049687406024 0.3358193751693521
H 0.8280850836992407 -1.0128403804499917 1.1115799624407685
H 3.474692403430244 1.2226496327683183 -0.4108146816907571
H 3.4013365978892693 -0.3078424227481343 -1.5717201625381323
H -2.5123941829776557 -0.30542615457874694 -0.5777718813206021
H -1.7946884703561776 -0.738433594546093 0.9978520042485294
H -1.5483765495831325 -2.8696179228312855 0.13865943100657352
H -0.2554156459045706 -2.162422917098383 -0.9383128276380672
