12

C -1.5807586139180296 1.2453968595436982 0.07079319643716608
C -0.6127153099757607 0.35446302623038856 0.02480477531109233
C -1.0046878058249598 -1.0665907118475264 0.12297105496160594
C 0.7505758964596898 0.7816490457760694 -0.11503705516993286
C 1.752080608510404 -0.1029787220623678 -0.16427885102580367
H -1.322257501212671 2.286316996459671 0.0014214218196332538
H -0.950503027434448 -1.601429398298126 -0.8445526380150796
H -2.025303529144612 -1.195077566434978 0.5145690887420089
H -0.2976784525265768 -1.5608368272898991 0.8141476512272108
H 1.0066951543019134 1.8296873006705472 -0.18450230013167854
H 1.5169019064102138 -1.155599939402104 -0.09646074990134046
H 2.767650674354772 0.18499993665443945 -0.2670960902492799
