23

C -4.815309839196697 -1.2098001277219874 -1.7598629918248636
C -3.9359988995620916 -0.44811431284498876 -1.0943568671614243
C -4.048390609319991 -0.31725788784342196 0.3763976850902224
C -2.870373017044735 0.25317905633061205 -1.7997606462476947
C -1.7097731367994309 0.4945219932389362 -1.261791049906479
C -0.6216622210616629 0.8085277768118266 -0.6420417143803392
C 0.29264274661505985 1.098690641954481 0.268833277429112
C 0.9171938573302929 0.037265911322227785 0.982603053700223
C 2.1900028747190103 0.1774045424638859 1.2838463433533498
C 3.4593390576081178 0.39514368222514706 1.461715830420077
C 4.346514725263754 -0.05274251945240819 0.4104872321408136
C 5.665086056313264 0.1140806062351698 0.4791800775935302
H -4.706772892893768 -1.2868028152696445 -2.8436363284444113
H -3.216638830984665 -0.8597877854735683 0.8788937249416908
H -3.9482676276395106 0.7499362156347592 0.7027215098092692
H -5.031285795803717 -0.6570812236459627 0.7524600221424355
H -3.075211299546743 0.5778999578248115 -2.8130238677164687
H 0.4969426076082555 2.1419325033656293 0.4014511197232141
H 0.5104874607747325 -0.8831180240168292 1.3210280664375216
H 3.7007399550573887 0.8821346659950503 2.3653534820278863
H 3.9590482779049068 -0.5415603029926614 -0.47047101063705643
H 6.149778287550606 0.5908818688262514 1.3184747246401411
H 6.291908263107882 -0.23038487755889173 -0.31850167313062894
