15

C -1.4672592427108664 1.5966716261569793 -2.080182110999498
C -1.7498792003638628 1.1548955444370064 -0.848788837505346
C -0.8392230461931601 0.2746532054606636 -0.14338183076790598
C -1.1346309968803383 -0.1484668618885622 1.0653206360149352
C 0.4323567887720636 -0.16647345333994354 -0.7568883780791961
C 1.2264583089515808 -0.9849218726224195 0.1875211529744369
C 2.4003239550295348 -0.5471111355140108 0.6094103498396608
H -0.584308258990742 1.3448849515364008 -2.6167482683381853
H -2.685985064180527 1.501474178009155 -0.4414730019974689
H -0.46805285870463625 -0.8107667971258841 1.6181505559037934
H -2.0673204391306603 0.18108200916549178 1.5030927553713276
H 0.28938347411029214 -0.7547689533014977 -1.683242837391709
H 0.8675638157415234 -1.9421080084645768 0.5453177201358481
H 2.7577455737744994 0.4002746871258783 0.25655059248596335
H 3.0228271907767827 -1.0993191196302288 1.2969036574599664
