17

C 3.698653354981942 -0.5841486402770729 0.1361157799726924
C 3.0850436376794197 0.40597975636458716 -0.4583404606702312
C 1.693959503540219 0.7414245434536353 -0.312412606139693
C 0.9241406457476244 0.026003855529774703 0.473289590802063
C -0.5317825243196581 0.36583064095497486 0.634833225747268
C -1.3363707408127827 -0.7731752369669218 0.2051517305658333
C -2.5498615758593557 -0.5100513313099498 -0.20541765762348824
C -3.758210887151334 -0.151253575307914 -0.6036352934780921
H 3.277746355506617 -1.2890031742844308 0.8110744430931132
H 3.7101582343431256 1.023325368309845 -1.1247809898615677
H 1.271969502617595 1.5948424483221577 -0.8562354923273362
H 1.3219858822708312 -0.8138059265769859 1.0135348436009914
H -0.6626896314979368 0.6005442118935789 1.7291298097741665
H -0.7569333857045545 1.2312040560528457 0.014384803574819676
H -1.0804089376534827 -1.8005642487156681 0.17524900149148387
H -4.481236480310195 -0.1412502790264146 0.16506481177529594
H -3.826162953378059 0.07409753158399651 -1.6316824140135133
