10

C 1.211624949905834 -1.3063834647372154 -0.231548208305088
C 0.2553212959729109 -0.17788692329582073 -0.11519412698015391
C 0.7839069905477832 1.0349698105109457 -0.05412923057968148
C -1.2109962284204228 -0.2917898439652419 -0.06270638410295232
H 1.7051235970372798 -1.4094211958014216 0.7577494497674759
H 1.8609807837151093 1.2080244987012512 -0.0865942474249889
H 0.18208990786165163 1.9386032898456005 0.03230969305611829
H -1.6593974766768147 0.11274936643175974 -1.0019769743953966
H -1.6652442984295173 0.27581566038696026 0.7644727742691723
H -1.4634095215138252 -1.3846811980768108 -0.0023827453045006685
