29

C 5.843203078548558 -0.11732300001306792 -0.36482905554220196
C 4.549199737527551 -0.3224597520720941 -0.39006122957985717
C 3.650380132877472 -0.1332939440045931 0.7819878614392755
C 2.7162181948605486 0.9393023903111587 0.4806129508730701
C 1.6733873296308897 0.610362828048213 -0.2626284292113059
C 0.6302113396705116 0.15326243115095248 -0.9175931716291416
C -0.44975953731874413 -0.3386857760911473 -0.10184464334918214
C -0.3957447767222594 -1.5885578255868846 0.19873907944897962
C -0.0942228584491414 -2.872719299379939 0.3764314259152018
C -1.542632416347592 0.4545205905773449 0.37885089442016595
C -1.4337901670003514 1.8824746990407129 -0.07093621873678815
C -2.196837975732188 2.1997367231527623 -1.0604801412972944
C -3.005575373417297 2.451788731088965 -2.07410952027862
C -2.5636643406232826 0.17508623189113232 1.0987484718658462
C -2.9386217203640563 -1.0904064558515472 1.6715478413755354
C -4.065016423677567 -1.1636125080187916 2.4038077274809977
H 6.288459877632755 0.21650565500395227 0.5880653102554304
H 4.081963272321364 -0.6510011835134505 -1.3119255704542054
H 3.1741617825421753 -1.1118811670813153 0.9921118772524432
H 2.7169324225425573 1.9563134474779202 0.7535379697030503
H 0.7281386314729001 0.20851494636601367 -1.9616154812510525
H 0.5071885039345979 -3.0339707193647056 1.2184138925534838
H -0.5227768304006294 -3.4787816386037655 -0.35997585207663796
H -0.8181272078427072 2.609059886381863 0.33335979469365873
H -2.572107737164638 2.2859049978851926 -3.0240692888642453
H -3.967143006416101 2.781667529203897 -1.7892856472785374
H -3.2604008204738646 1.0382178658729468 1.3105207583642478
H -2.3708015289266946 -1.9758436758903026 1.5465180572836534
H -4.362221582684356 -2.084182007981336 2.835947766018529
