31

C 2.158004240898502 -4.775717543311401 1.528442894876733
C 1.436459929129618 -4.420806569020598 0.47509859150207184
C 1.0857871926501348 -3.031628911494453 0.22283180421002824
C 0.36621152324105183 -2.7348154013682207 -0.83982352427359
C 0.002732198415895992 -1.34379012997486 -1.111746140496314
C 0.7458774260619607 -0.23282828406803133 -0.547609728166204
C 0.877359397939125 1.0459723109585355 -1.2862007699661244
C 1.6861835674409533 1.9676938749250157 -0.8059105539439676
C 2.4211693311392875 1.7519241562822776 0.3924901636525151
C 3.6408493055124107 2.2363606776770704 0.438712425661174
C 4.849607256407587 2.7585623448379186 0.3898038233983201
C -0.5412087242346801 -0.5067702316879723 0.036968826944593844
C -1.452004617711103 -0.20495945139553606 0.9193178198436409
C -2.521348038836712 -0.12183595471872957 1.656316348907648
C -3.596737121563387 0.7253226798972705 1.2152124956394887
C -3.8453074645597396 0.8922242836033789 -0.07577160766837503
C -4.952943140503896 1.7650697335675893 -0.518920906751148
H 2.5106760716467074 -4.041643331808454 2.2369789515742484
H 1.1141828021575995 -5.181343175979268 -0.1915209083231479
H 1.410243910667164 -2.2433872968999253 0.8987635498019111
H -0.5940069663612048 -1.1599211244249965 -2.038790208316527
H 0.3022688280302364 1.1810168853218592 -2.1994697235213034
H 1.7814505860672563 2.900805989094389 -1.3457833042765346
H 2.1319054443971357 1.2460848408523535 1.2829019444231418
H 5.591476373544042 2.1045150178993692 0.014475593268766365
H 4.907750582097389 3.7569341701741967 0.7314968563205779
H -2.59954483273658 -0.6684572702988297 2.562910659286837
H -3.245205135013173 0.39563145751768136 -0.809820860943029
H -5.768975593823379 1.853047854616341 0.2172043911472872
H -5.377878787351922 1.3010039273876108 -1.4375560699621925
H -4.525035544748387 2.7857344718384103 -0.732106806346046
