21

C -1.1641186341260916 2.9841383727851603 0.9415739492814426
C -0.9550797658776452 1.6512678133811924 0.3290333410016588
C -1.8309879511115452 0.7269550481379305 0.5880378586722884
C -1.7358438341851843 -0.44179133990144714 0.024164531621422576
C -2.9313379408826497 -1.3162399221080638 -0.1455210868838012
C -0.40144022061563284 -0.8639330483559097 -0.4383082956820141
C 0.5465924831740557 0.0014707836572650473 -0.7133772799251626
C 1.850690679677 -0.37861873668710533 -1.1638565445254716
C 2.6800020805010902 -0.788800373189279 -0.23806206544492148
C 3.4740510618332383 -1.1680898189448339 0.7450852262593691
C 0.23222426440305607 1.43414740367059 -0.54320064763439
H -0.6340265792529783 3.7656616722896565 0.35906776315070565
H -3.1891585740931645 -1.8626113125938022 0.7752491029918674
H -2.7481157348039327 -1.9995951030259043 -1.0095167113232775
H -3.7678009889702926 -0.6343848225840514 -0.4771344723019815
H -0.2285837403810363 -1.9436966036549805 -0.5452643961530804
H 2.2463164116553127 -0.3767181738869572 -2.144162228693724
H 3.432618025453926 -2.1983670224015825 0.9501127543293474
H 4.034986305662242 -0.39099802858629185 1.1856049936751822
H -0.042998602718245967 1.843051235072114 -1.5592949875285245
H 1.1320112546586198 1.957151976926405 -0.15665213593895702
