24

C -4.32990912129461 1.6495999707520743 0.0654615273803231
C -4.581205924106296 0.21890179766635634 -0.30297059264456705
C -3.38047005449825 -0.6444260994023917 -0.12281009634444763
C -2.25233027131393 -0.13531643592735026 0.3174245467855824
C -1.0803897658999837 -0.9707302366886319 0.4947481542202114
C 0.0656816577759132 -0.49368665090662367 0.9337301670479569
C 1.2317827573360929 -1.335786547932069 1.1079492800326616
C 2.238030494318396 -1.2761414625180472 0.06823314647844553
C 3.373340866578364 -0.6882985623768657 0.39597074930909915
C 4.424042056188578 0.002930164380482303 0.7869272526223186
C 4.35876382354786 1.4111462853018508 0.5741766304804402
C 4.202572004600741 1.8810066193771122 -0.6479759845473085
H -4.5416351506891806 2.323069601839327 -0.7762705771085412
H -5.423136317153143 -0.23734103409545915 0.2729105279422717
H -4.855769224000168 0.12591930848588131 -1.3905869521905396
H -3.4939958923285985 -1.6839405531307912 -0.3699405654648964
H -2.1766680305384236 0.9124474129317109 0.5549830940069028
H -1.1582982026517845 -2.0208968038413793 0.25603584534982754
H 0.11810942510891467 0.5551166481040039 1.164571505554363
H 1.5820487818549183 -1.502051532890093 2.1151599535039605
H 2.2297339929821356 -1.622731741125424 -0.924760631863876
H 5.178671756525771 -0.5984200020899629 1.2117403640174145
H 4.1260253604321635 1.1932385058120818 -1.4727200826534912
H 4.1450049772275745 2.9363913482744333 -0.8814663982416497
