12

C -2.7918246569467553 0.946740909514214 1.7716270721936038
C -2.5634488053051165 0.41562220332414873 0.5756274923367244
C -1.253728213243398 -0.12384043465562637 0.33847296063801297
C -0.15698804465744265 -0.5844898240817481 0.15627364254818696
C 1.1720562754712351 -1.1503940237612211 -0.08946892995295429
C 2.0784456835508798 -0.017768654069446742 -0.3051836542662298
C 2.821283122214656 0.9311953346349072 -0.4847198339334028
H -2.0706543740041248 0.9937368970377398 2.5499518804798575
H -3.360706708108219 0.42242017700554485 -0.12965211943225965
H 1.5119490449056099 -1.800800930099195 0.7299580019361382
H 1.15323436904246 -1.8035383322815324 -1.0087214235718391
H 3.460382307080392 1.7711166773961275 -0.6318971498779875
