27

C -1.0014294411548095 -3.592108545570908 -0.7778162767195715
C -1.4794337522225987 -2.4131119041735754 -1.16620179107915
C -1.86503822398382 -1.4667222495409347 -1.970662272786861
C -1.4721726338451606 -0.09083344406252854 -1.8060795533556222
C -1.9307421625897105 0.8226013618559184 -2.711498571229677
C -0.6493322785423129 0.4521087807667077 -0.7861669415216075
C -0.1917221197857064 -0.36009210677012127 0.09238285833262842
C 0.3938228909062488 -1.1543992094500821 0.9714824670839352
C 1.6502178924257267 -1.6726564695013908 0.5487720940797071
C 2.419628111282436 -2.1600477030618626 1.4786212369562466
C 3.1453084812133816 -2.642146054549697 2.4676542555841685
C -0.25694693399064344 1.8650919095022447 -0.6262921444049244
C -0.8597842641934276 2.3760013623124228 0.611276435587916
C -0.316776990788409 3.455771245804293 1.1102471662296367
C 0.28151941915012335 4.542288923670945 1.5477997118392375
H 0.09631300302619088 -3.671226032908393 -0.8532243914423819
H -2.515310940117361 -1.7404933332196766 -2.802968685090213
H -1.6925428851945863 1.8529526887739807 -2.6674307173993803
H -2.562477012281569 0.4720992856653054 -3.502380787823676
H -0.1699420410886653 -1.2767017287580458 1.8402640335048246
H 2.04871469103285 -1.7169777933103494 -0.42907625075525485
H 3.7873204305752943 -1.938193665454275 2.9240158488811714
H 2.9880964424896623 -3.6669096092963063 2.6726308942704673
H 0.8602974479817206 1.9170775069369317 -0.6023545239044752
H -1.6763987901224884 1.9954031478872452 1.1636698844360343
H -0.12013244108427426 5.449070192477437 1.1775964479782943
H 1.0889441008980432 4.362153443982452 2.214038808446629
