10

C 0.9539907780369911 -1.4938434328884789 -0.34973406686409814
C 0.4845924462430936 -0.27025466599092657 0.3809779095067523
C 0.47846890061767294 1.0647708718343771 -0.20202818302425776
C -0.8144524100314045 0.2807327553802534 -0.16109314050125004
C -2.1071867595315283 0.22433915257460046 -0.4371402204012175
H 1.779177506466234 -1.9845851301741448 0.16688983833643667
H 0.4816871836714194 -0.3531445378777442 1.4833084145929663
H 0.8139225139930416 1.299765732942625 -1.2188132251781414
H 0.545397155816467 1.9385692015392841 0.4876211377235252
H -2.6155973152821437 -0.7063499473415433 -0.14998846419090345
