11

C 2.9397881684912917 0.5707323725083246 0.06021543244610666
C 1.8386058308451425 0.1564075265227573 -0.5014062235623223
C 0.8134622419483479 -0.5979887538490246 -0.8662554704038598
C -0.4738783448223389 -0.276054538877406 -0.23800777736505582
C -1.02016066265496 -1.0733988988866001 0.8840709109172415
C -1.1327559366542885 0.7608528463851028 -0.7153204606477848
H 3.2290215124956343 0.275799381707125 1.0783360800925357
H -1.774482481569628 -1.8161900622564853 0.5515691330977449
H -1.5941402181596345 -0.34873673885301437 1.5333343115285678
H -0.7417057513695924 1.348202482272532 -1.5337447402980464
H -2.0837543585497413 1.000374383326658 -0.25279119580516657
