25

C 4.781623072940079 -0.8762326954060738 1.6767454339327432
C 3.710598079591675 -0.5818024764401664 0.9874157715160484
C 2.682229702156355 -0.08571548017229606 0.3124802826268461
C 1.4993485162794253 0.2727638266095078 1.089913439911169
C 0.2698863992411224 0.4060839406271512 0.26601283458755054
C -0.4221999117615761 1.530814306812388 0.20000156266670102
C -1.632177075832017 1.6939269277887339 -0.5987455830633303
C -2.313020476900837 2.814531263976297 -0.6583199795075281
C -2.0867128909522927 0.5392573492207657 -1.3595799792607541
C -1.3900088404367372 -0.5637435088766946 -1.282050100977174
C -0.17255851682572598 -0.7740919040800909 -0.49588595562954
C -0.3369937974164396 -1.9550168750718118 0.37780892809381345
C -1.5191388927283271 -2.5323919571625173 0.4672260851726302
H 5.353613009965444 -0.05740761780200074 2.0764084321566685
H 2.831495363975771 -0.0008899253432334603 -0.7338538617862692
H 1.6840174154611243 1.136511426655308 1.739558244011811
H -0.04791667361498744 2.3645544248948256 0.7821464328831897
H -1.9827093551306583 3.665555090700614 -0.10089567502354412
H -3.1919449958049095 2.8642900808651417 -1.2645772877535948
H -2.9844438646843594 0.5735246353505635 -1.9850901388421747
H -1.7453997247321384 -1.4199231740249787 -1.8592681434950338
H 0.625554822139047 -1.067706303441094 -1.242475537735515
H 0.47690603513581936 -2.363405574115868 0.946876830915927
H -1.6964036556513231 -3.406242793284316 1.0966995100989572
H -2.3936437445595797 -2.1772429881010904 -0.07884961191021547
