22

C 1.1779077359371504 -1.0867617481887057 1.5397350211636782
C 1.2450525062889455 -0.06031899666543505 0.7215406205411252
C 2.5381089231514884 0.2918068627672197 0.16499420915464866
C 3.641215726172394 -0.3829341217513209 0.45364422556593703
C 0.06980091875107666 0.7125538297425955 0.3717776041003553
C -1.1616488956798143 0.256269887052402 0.9962766057244289
C -1.6714075881851644 -0.8569612203365722 0.5531312857086242
C -2.1229217286646214 -1.9888071156340612 0.05010580616730265
C -0.13788174257977023 0.6703086957532332 -1.1436307995694708
C -1.3707946134580646 1.4904275224971604 -1.4345067474198738
H 0.25145894832963694 -1.4103814265744896 1.994339809809255
H 3.558159443109503 -1.2199654470997603 1.126999403653627
H 4.576234047302344 -0.07786890109698774 0.011712069496911929
H 0.24422898436528714 1.7722911524831375 0.7029714217779502
H -1.6985373931343821 0.7232757767153093 1.7740385204727267
H -1.7595117489608785 -2.856605351675565 0.5341462689543316
H -2.783894283637115 -1.8702631730230252 -0.7665465356930428
H 0.7351347872526797 1.1666119357550657 -1.6206188919113194
H -0.28267694368662427 -0.35433832197522364 -1.47648763705211
H -2.137077602684038 1.2931927149832305 -0.6711702384963699
H -1.1223727187970662 2.5730273141500595 -1.4757005009030528
H -1.7885767611916275 1.2154401321212889 -2.4067515212456763
