20

C 4.836816148483877 1.5355388433048174 0.8475449545589002
C 3.8741304151454408 1.176133050807608 0.050522710727379856
C 3.0256527928119947 0.7415343977096384 -0.828150684021635
C 2.238679925185504 0.05683844409092284 -1.6224804539006394
C 0.9105104771065824 -0.39797449788608025 -1.2053162211796613
C 0.7534533517091839 -0.9274498073820543 -0.021649804285400743
C -0.5818716574799527 -1.3884883111521715 0.4067791658754502
C -1.554443759790669 -0.2927898230392488 0.1429388975852402
C -2.6314334314525456 -0.1807678335186177 0.9072668274389413
C -3.6501772040367566 0.8845142865055692 0.7099672239328991
H 5.2611579629389364 0.9030468057958064 1.6128442205437126
H 2.557068577398279 -0.1877764619015439 -2.6094870395510763
H 0.11321114155792517 -0.2642648938667448 -1.9247533761073234
H 1.5838163119061677 -1.02953007706231 0.6390353097901079
H -0.8260632758018164 -2.3005635978900667 -0.169860755416724
H -1.368154705022287 0.4137793153490427 -0.6856736678582221
H -2.788327304795298 -0.8851712621717627 1.7100001891895569
H -3.3884442121189893 1.7873071017522433 1.3305090111643165
H -3.739556640983648 1.170259897217904 -0.35766352511411426
H -4.626024912761909 0.5255178218683053 1.0676270166283797
