11

C 2.7525971357844097 0.02671940328738994 0.05526300187559698
C 1.6534298717197549 -0.42014877488935415 -0.4897998506864955
C 0.48948153304633324 -0.8140130081841955 -0.9753188400688466
C -0.6816112442835296 -0.7783943014584899 -0.04861271248687878
C -1.1884520167711923 0.621565580163408 0.1588714728610482
H 2.8106616257457024 1.112343397884749 0.16832122668737434
H -0.4003763153644643 -1.2363034473002474 0.9451205879295789
H -1.4721372391062713 -1.4023836728724421 -0.5339509172295753
H -0.8128896365698816 1.295868666597067 -0.6405325463853698
H -0.8511007396089599 0.9762116389852665 1.1587761420172327
H -2.2996029745919215 0.6185345177868408 0.2018624354863243
