16

C -0.8772969932088319 1.4211146615173202 -1.2131462425785184
C -0.28219636042929747 1.1832495006079045 -0.0831305045957791
C -0.22164350088950216 -0.26339336902297616 0.35759638502184354
C -1.3425538489906426 -0.9702655919434342 -0.3216090079123736
C -2.6026354690502194 -0.8900236543446053 0.0769419675664267
C 1.0479023132066765 -0.9067441537629044 -0.21520612914934376
C 2.2228974802201065 -0.22104866039352555 0.2623003923852244
C 3.2436118481934915 0.3744392004268245 0.6839182702578751
H -1.0792316741345094 2.2792144494659166 -1.7736293770461118
H 0.1654407903851285 1.9161753231945795 0.5505688990877039
H -0.21958132686905768 -0.28135710286955007 1.4334653271895612
H -3.339704379699766 -1.437113460469135 -0.4843959496283386
H -2.895641098047735 -0.3145203733950253 0.9261113067948502
H 1.0189798931545622 -0.8042953398781838 -1.3444945691068422
H 1.0762497813460374 -1.9571380162556269 0.09828920920897027
H 4.085402544530467 0.8717065870351693 1.0464200225655562
