12

C 0.15161957338512533 -1.4858177221116426 -0.01577047397030441
C -1.1911538588546196 -0.9251283009151258 -0.14107297581753211
C -1.4107501969401577 0.368154666546652 -0.20320405418748613
C -0.329902718081197 1.334545410589743 -0.15147339805502175
C 0.9300622248765464 0.9592189552184586 -0.039124531400277836
C 2.2600030530426083 0.3927110365155764 0.08536659785074306
C 1.1907165498927212 -0.4654432473773842 0.03079701596413764
H 0.17946308770509942 -2.0592279374781586 0.9568811694381001
H -2.0746794439918155 -1.623106394721066 -0.18655350629477155
H -2.4571396613998844 0.666451440084761 -0.2960420352856128
H -0.5572809488715103 2.399284585483692 -0.20629774077269145
H 3.309042339237068 0.43835750816449137 0.16649393253073833
