21

C 1.9605568527263573 0.643181976929589 -1.656135020504026
C 1.3673719388868857 -0.028016272397484502 -0.7072161264739276
C 2.0426310188729007 -1.0702977211445737 -0.006994608143783768
C 3.2995050572196734 -0.8385650407613117 0.3193690557877672
C 4.544035667325136 -0.5214567117619097 0.6027523184179705
C -0.03321689581291677 0.3188756533640956 -0.3706619553751367
C -0.9072493799649368 -0.8343505587204529 -0.5711988094846586
C -2.1976524645472577 -0.5964734723214701 -0.5057801238352111
C -3.447939255938489 -0.28782815628444314 -0.27848660316993207
C -3.930280314297842 -0.3718764042503284 1.092549771526942
H 2.980710878102607 0.40338965642947794 -1.913964642872534
H 1.6940440688498157 -2.018439708352157 0.3001087109988729
H 4.6713995741771885 -0.03790433107435361 1.5359525719248224
H 5.246053343250172 -0.7923110740508345 -0.14069111814713534
H -0.0760821952754946 0.5817981924323766 0.7255522905700975
H -0.40920735897473914 1.173254322922589 -0.9751215781640659
H -0.676088327618472 -1.8457339550123417 -0.7619094123978745
H -3.9750695842839616 -0.004261006778356151 -1.141102011655289
H -3.7800196352653925 0.6342355890289167 1.5756986213349455
H -5.005320667586583 -0.6245174607770976 1.1716386013646605
H -3.36818231984391 -1.101321034192993 1.7056400682973134
