15

C -2.857596018123429 -1.5165562601507703 -0.007409100431517022
C -1.9965552678186327 -0.7053122597931608 0.5844324033983149
C -1.3237224168280897 0.3490403727461995 0.9580895430689231
C -0.10889652838298863 0.6974793995866739 0.210441329664178
C -0.01661081067077896 0.49047526751946896 -1.254545461977143
C 0.7789891284380819 -0.3680765949212633 -0.3419348505465552
C 2.2317487444844963 -0.20124323548709674 -0.27735788684408863
C 3.4400468229213295 -0.07638388492844103 -0.20756767642119028
H -3.533195306479751 -1.1271391729955826 -0.7720353712017693
H -1.647901363436912 0.9435862708319172 1.7834924451638186
H 0.45327583185019693 1.573284093074895 0.6118120266011875
H 0.5499466644530918 1.2320309751586336 -1.847549390794979
H -0.926044613600607 0.09940751194369125 -1.7549841567077413
H 0.46742509132129356 -1.4358130338381203 -0.2946356108971185
H 4.4890900418540785 0.04522055130201686 -0.15393558427009682
