30

C -4.486028000236163 2.8231387468095064 -2.5601422304993195
C -3.8003797033162066 2.0565257921692637 -1.7267664605344355
C -3.0154558497206225 1.5554401174082557 -0.8165113358421758
C -3.5801760310784574 1.1112921283144714 0.4295235789840409
C -3.0469628438583793 0.16755927454128233 1.1632295497306242
C -1.8326886794663997 -0.48886880655037696 0.7438615550079652
C -1.3000336431216206 -1.4360107205145718 1.4865357168713613
C -0.048529627525663144 -2.112483976019195 1.0558843973591905
C -0.23635298046568673 -2.6572809162151456 -0.32858528574864304
C 1.0636386192678082 -1.1492089881363088 1.1365890355827557
C 1.7230554040391228 -0.841684967750897 0.04380523442756771
C 1.9210409420882655 -1.0113181710241632 -1.419601179555238
C 2.804198454195519 -0.0883220314200079 -0.63876823861361
C 3.7963817373963553 0.7497198034788601 -0.623429568301621
C 4.904658433469881 1.408468940168768 -0.5698481562320511
C 6.015259838499928 2.068571978596243 -0.42208112967571476
H -4.650206001875409 3.8452793349154173 -2.2623712925233046
H -1.967680039808955 1.4837375719394128 -0.9961023309078779
H -4.508977969097266 1.5757189921114116 0.7998146085514353
H -3.5032259213582932 -0.15041639444508356 2.1142419723807504
H -1.3504397431395725 -0.21969925928783285 -0.17102356629822368
H -1.7968822262186535 -1.7143651988085538 2.4256685454910785
H -0.4619617480026483 -1.900679610509929 -1.087938820369684
H -1.1432462646877442 -3.333772092275129 -0.30923045302021734
H 0.6384361694160842 -3.2937844172563766 -0.6350554035173099
H 1.3456315186714756 -0.6885226635665851 2.099177749716067
H 1.1968140767237343 -0.5128438041939762 -2.112490953831833
H 2.3346738614772717 -1.943362717836814 -1.8204016433758732
H 6.523909285286206 2.55789940467512 -1.2432781548734944
H 6.461528932624316 2.1392726504780315 0.5514946311014098
