25

C 5.9080462864081555 1.5250185129036855 1.7431650824919906
C 4.969070484519918 0.7183001551147385 1.323968046576967
C 3.8849888599066285 0.040928552553109475 1.2964166594823479
C 2.9015834830007083 -0.7813738936873191 1.0811593556062988
C 1.923712677488196 -0.4550362758008112 0.017861539983003428
C 0.7417427968800211 0.08744774392510134 0.23437207964224138
C 0.06241851877652465 0.2592563078425535 -1.0612492327501921
C -1.1389947277972978 -0.6014077366168479 -1.0575254550956623
C -2.266051073975814 0.012478511773005114 -1.2780624243540248
C -3.3715960270131 0.719756481367525 -1.400510506107695
C -3.943647044276141 1.233371473695221 -0.16527682268962848
C -4.535682697968205 0.2376888380232335 0.7234316560598075
C -4.057057703695604 0.0345769905694365 1.9387331406590333
C 1.011728003357864 -0.2565284857380326 -2.0474974292282755
C 2.083001022185627 -0.6661651839740157 -1.4114722944965714
H 6.836610628538202 1.0455518857884545 2.0612343781581863
H 2.8106245300665984 -1.6681258452310823 1.6630680400417188
H 0.3800069004673636 0.34545931172540834 1.2337137619362053
H -1.214133356513666 -1.6375120619930703 -0.9008546214569894
H -3.691903202353427 0.8163623789544942 -2.4025728753491036
H -3.3024646302312775 1.9719681680203631 0.3613440729725504
H -5.378247812488105 -0.35136724025765836 0.39989460429485124
H -4.450485200859399 -0.6848309747328488 2.6400778693306592
H 0.8617678814851268 -0.29448739752859115 -3.103232625656069
H 2.974961404090967 -1.1066149178490126 -1.8901860000516466
