17

C 4.418045526031332 0.823192505994303 -0.10405457595974368
C 3.563067992000963 0.6882790840432852 0.8785943524441754
C 2.5428621150203687 -0.32702451929251525 0.8354627394657304
C 1.330398875089976 -0.12700044202562044 0.3637667311233572
C 0.09345772399111839 0.24463479743609068 0.21100828258512289
C -1.177676919447083 0.5121659880749961 0.2172334691471032
C -1.9747056057352377 0.08721895970053746 -0.9564738537615263
C -3.3121228084296583 -0.4361698490886298 -0.4402821584316829
H 4.379055520652554 0.1836353329324031 -0.960571286336563
H 3.623563323849891 1.3431784525320118 1.727394245503789
H 2.807136869239008 -1.3102798654726824 1.219121771487571
H -1.688087855286694 1.0240460375394584 1.023337116738635
H -1.4606896439709407 -0.6585687211242581 -1.5823156821345479
H -2.2238078263344137 0.9553084034204729 -1.6089232543695635
H -3.2106798397648273 -1.397788476141917 0.06868801330663651
H -4.074455814598511 -0.41581633050520733 -1.2252426652327046
H -3.635361632307806 0.3198237094923934 0.33325675442419556
