16

C 3.3726478055140543 -0.3247022598502393 0.3913856082978632
C 2.1775291375948456 -0.8547949560681903 0.4085502831302318
C 0.9191371293061034 -1.0726958472132153 0.668801812763844
C -0.10094951448683422 -0.8459428535555181 -0.3854454480077372
C -1.4171676402788016 -1.4447981015225702 -0.12613225549240775
C -1.9573647694508156 -0.23153807860173137 -0.1624886618078676
C -0.6905302940441372 0.5257669397201276 -0.4297822324508463
C -0.27822404192435374 1.4821301120269734 0.639670324680043
H 3.7709357018989573 -0.09048328393118173 -0.597747209718217
H 0.30908863609264614 -1.185988612976464 -1.3712087737279186
H -1.8782595794326935 -2.4132514858058967 0.03896112614512263
H -2.9734166676724842 0.16629372924916502 -0.0465052368282562
H -0.6668643497574863 0.9641501478915724 -1.4455912379695441
H 0.13652210061659362 2.4139323913009765 0.16205583475071553
H 0.476781460416159 1.0891009835006775 1.3412985961111792
H -1.1998651143917538 1.8228211758355382 1.1676996578312948
