11

C 0.26115391833283613 -2.5684879004624577 2.4246661529723315
C 0.3913824678352677 -2.100891210246391 1.1868041695395493
C 0.732887174808037 -1.4696121893086203 0.06814421287726488
C 0.19401650027053857 -0.2279426490803647 -0.1958394259119435
C -0.2892510221232921 0.8987523786443093 -0.45653094990842064
C -0.8456219450627509 2.2537062365832994 -0.7712857934213536
H 1.1291904447040835 -2.3472962383929143 3.0475854870413506
H 1.436086349461374 -2.0363270062091456 -0.5295590037835001
H -0.24682224079284448 2.959843166030091 -0.19287117237972454
H -1.8534003986706504 2.246033441848176 -0.3018782944942694
H -0.9096212487184177 2.392221970616694 -1.8416424837075964
