20

C -2.179767233509888 2.7115582677002474 -0.33199892179204843
C -0.9339519815869652 2.3109910617078637 -0.14523689543812304
C -0.6751811563998535 0.9455551105633194 0.1656490760670174
C 0.5800162347258563 0.6437603416270034 0.3253406522594226
C 1.8510923872154381 0.29127526289519434 0.3768198925388316
C 2.4543768995530115 -0.1127409024986626 -0.838324946749343
C 3.7198021261358774 -0.48152113506748245 -0.8804366475761952
C -1.6066857580211507 -0.12306286535495713 0.3164595493904728
C -1.227252468197858 -1.3391277217266517 0.6060034320028025
C -2.195680065584188 -2.448615893134667 0.7624704719765256
H -2.426307390707383 3.7573361507570757 -0.5740479349158802
H -0.15539628042445172 3.0395746574846494 -0.23607714068637936
H 2.236909207774697 0.36696338728649736 1.3513893628902736
H 1.9216370919777876 -0.13931067666044933 -1.7732830040210341
H 4.2880809283833194 -0.4705212457175157 0.02553579037146528
H 4.214671132491017 -0.7951972679065724 -1.784190618742643
H -2.6840308273886215 0.04125137030192982 0.19295541371475294
H -2.365856493567719 -2.9059566906346395 -0.2158761405457627
H -1.6880078881013763 -3.2141632629810664 1.408782941638208
H -3.1284684647684813 -2.0780479486430483 1.2480656676177306
