17

C 2.123420365327562 1.1868512111426852 -0.7375359354807135
C 1.5362614316408347 0.2743306782339759 0.026714457746081968
C 1.408312275024531 -1.1397144910990968 0.5234922903223348
C 0.5100182585259381 -0.03984145236237171 1.0144036882805796
C -0.9233764865629778 0.02575035970835841 0.6111065554099866
C -1.3492681283700143 1.392515480903587 0.13642881095793893
C -1.2958552190896748 -0.9699926495318473 -0.45582264189419835
H 2.9559251960258015 0.8646984372803463 -1.381988532568375
H 0.989850181994589 -1.8983980526896997 -0.14384558211559204
H 2.227684075553237 -1.5033577576502897 1.1850530164921338
H 0.6838986716770956 0.22207664330503046 2.0925549252014433
H -1.2150217251450108 1.4825466688438644 -0.9619944201410826
H -0.8497208582042685 2.208972013344597 0.6965916700466748
H -2.4473108873564 1.4772452557214761 0.32527488900760776
H -1.5456504233093398 -1.9267620970697308 0.040675400252417296
H -0.5592677173542757 -1.057822814032009 -1.253348535673011
H -2.2498990103777645 -0.5990974340489621 -0.9140199346027733
