26

C -4.455070244817245 1.3816062592464173 -0.007797996898346253
C -3.4419087269718935 0.8487896761852762 -0.6587704113767718
C -3.034718565923079 -0.5252036058523178 -0.39762935652459697
C -1.687046523505604 -0.8881134788817036 -0.9557350433759363
C -0.5805015492407375 -0.12337430587898479 -0.47408729422061646
C -0.8158658375954851 0.811713954395058 0.39456462153382404
C -1.0070784107086606 1.7125302546097392 1.2952784617413762
C 0.7620637856814552 -0.3549547454480233 -0.9149582358547695
C 1.2370439689254487 -1.7375348426721635 -0.8737742906392907
C 2.400681801489846 -1.7515484002437398 -0.254421985954161
C 2.781607400781689 -0.40793025973434516 0.1555423061228567
C 4.039407431925637 -0.027664238600169182 0.8857855082207979
C 1.8142019948112393 0.4020447803561748 -0.23666243742182155
H -4.998091186388792 0.807225037121208 0.7286977799459444
H -2.9226102563105547 1.4529270523213855 -1.3878334480188335
H -3.193805687853265 -0.8763268895779955 0.6348599306118716
H -1.593254989168279 -2.0005953684904134 -0.8364506945205255
H -1.7684775159916593 -0.7420034438748276 -2.0740432102006388
H -1.2059736266701637 2.6906223964011913 0.9934391398315496
H -0.9644577350511012 1.4722273893793383 2.3091198107620476
H 0.7110605856169672 -2.6077864044189987 -1.2884704699302447
H 3.0277249878976162 -2.6356278597050076 -0.055398039344317376
H 4.245703622860503 -0.8071338697740614 1.621222762551369
H 3.949244510898411 0.9697957870277846 1.3276105612623958
H 4.871287688273521 -0.0516724640559602 0.13492331508444816
H 1.8288330770338501 1.4680714547944151 -0.06501128338747629
