24

C 1.5788021314374945 -1.3259464261014864 0.9488623174694053
C 2.688405966155014 -0.41487388154815646 0.5608039974989324
C 2.732188820391171 0.8649845652108886 0.22327429219009348
C 1.7099822903595299 1.9135779151698613 0.09167931695372503
C 0.38177872085591824 1.812500717125504 -0.08564343361720532
C -0.5584996553308609 0.7048890541419787 -0.2156904049746557
C -0.48579666067305977 -0.6223390363416762 -0.25375839342735906
C 0.6344430664150223 -1.6242674184236472 -0.17761622356240386
C -1.8434495873557897 -1.2012661329812522 -0.41126648483297007
C -2.7099682076947467 -0.12372968238186224 0.2027753292528952
C -1.9994212288718576 1.1268052534726594 -0.3393405408692544
H 1.9908977460480464 -2.234164142359116 1.4293267771562326
H 3.675786796002527 -0.8775877106813695 0.5453387935031788
H 3.7233984546811025 1.2306741738790918 -0.006835531480826165
H 2.0913400332421177 2.9129788762442543 0.1466312272445766
H -0.07686633516211358 2.789879936404609 -0.14246703918901524
H 0.2021789577873245 -2.626670339213033 0.016049387644376183
H 1.1713218663417957 -1.6853436091156717 -1.145611732032251
H -2.1010139523826954 -1.2943814000597855 -1.4979244794867097
H -1.9486458661680168 -2.1722285424264465 0.11929838517151671
H -3.7485214249227456 -0.16595154255735156 -0.14859331566317682
H -2.612373668195134 -0.18728284920523458 1.2936532840462704
H -2.2248011728010546 2.0152106859341923 0.25017923889656385
H -2.271167090158971 1.1845315358130624 -1.4031247678919194
