15

C -1.7431997400358548 1.6215842528648063 -0.14599153637239662
C -0.5460564394908235 1.0428338189289126 -0.30415660054584553
C -0.27451470762746283 -0.2771863904293673 0.22696636362545478
C -1.3712004798715816 -0.9717724510285979 0.9560887385915864
C 0.9124121067281823 -0.811188514835911 0.05112103196882543
C 1.9339797373609036 -0.03716867187529541 -0.6886524920656881
H -1.897797091342534 2.6055505759008266 -0.5592397691328883
H 0.25281604937212343 1.5471058119132903 -0.8344450855758802
H -1.2718542973014986 -2.0633481843970918 0.9476116723843486
H -1.3399894467889293 -0.6379261529106345 2.0069992281477003
H -2.3436695706002704 -0.6676415807401844 0.49172913246536626
H 1.1139304814765885 -1.8098625240241353 0.45437083887089524
H 2.878081247895468 -0.6133038041396737 -0.6446655157113
H 1.5893145424464297 0.10582905137190939 -1.7462884080361258
H 2.10774760777923 0.9664947634012327 -0.21144759861401705
