24

C -2.429414911810316 -0.4390510201011746 2.678567613388382
C -2.8425314617882584 0.11300971297912418 1.6168829462985466
C -2.197202672894389 0.452177427471281 0.37019241203151154
C -2.825872368932184 1.0548177594640442 -0.6712581239559194
C -1.897533080283674 1.2551177347996991 -1.769314019812659
C -0.7087252078798197 0.8027193830045137 -1.461452242846523
C -0.8319714757694707 0.26527471928589785 -0.08051476889941692
C 0.16328923025088013 -0.28020491207901804 0.5803808509250159
C 1.5054423082301465 -0.3742948784953923 -0.07948359893589478
C 1.6060291650845853 -1.655440675312477 -0.8807680836651851
C 2.6044802863842533 -0.1958242384057796 0.8745971146965343
C 3.548323946459955 0.6983285600613107 0.6452441479541605
H -1.5312062105566682 -0.8124970892791985 2.9876902806946646
H -3.9340388449683017 0.3922158182488066 1.6633725170172704
H -3.8834189685849583 1.339909957675269 -0.6614002991688052
H -2.121833672959307 1.7150796161614903 -2.733120419011829
H 0.1991355593570661 0.7887088598689198 -2.0278044219948974
H 0.05259985179591699 -0.6571453871353362 1.5649620626266734
H 0.8177957095028411 -1.6054648469980153 -1.6603063728075758
H 2.630400183860238 -1.6450366422793534 -1.3437833906962109
H 1.5232541394939074 -2.554332357623549 -0.23687076010174962
H 2.633275203306939 -0.8022553937223582 1.7646116872006181
H 3.5710523488200474 1.3296602029911535 -0.22343808396160494
H 4.34867094388053 0.8145276894200034 1.3595129250302649
