15

C 2.3656964766641444 1.501420783319508 0.8467678231219274
C 1.3579625611074775 0.7099015229445204 0.5737503285237322
C 0.5353193990553268 -0.1321105729646882 -0.0352529084819035
C 0.9302439339486835 -1.5556709645980946 -0.1721205681176825
C -0.7471166958417274 0.2718584678522004 -0.5869822933677047
C -1.9409775164904848 -0.4899369381831596 0.05139166489915778
C -1.7627555815044502 1.0393185700378507 0.12364432121105272
H 2.8525293341320053 1.971935989301374 -0.005010443143406878
H 1.5888674528406856 -1.820764334724431 0.6642436813700575
H 1.517606607949014 -1.6233043728505718 -1.1236034061366227
H 0.029689838161955306 -2.1960459562825707 -0.2357752923678314
H -0.7923531620968501 0.24665640416091378 -1.709136068056579
H -1.7745787379103652 -0.9771148750703101 1.0124129783755962
H -2.533435946528296 1.5489165465457237 -0.5036940573981691
H -1.6266979634871368 1.5049397305117231 1.0993642395683636
