31

C -4.0627100775654155 2.6881183689878716 0.9187435084994169
C -2.8599430641790593 2.4108874661552946 1.503173677476444
C -1.8339666641505146 1.91588163495578 0.7610034278605814
C -0.6588771909710409 1.53214760020857 0.7879003803653164
C -0.028856870278114146 1.0339400652872697 -0.5684658085560964
C 0.06012064914031318 -0.4671466683484701 -0.2100342028314033
C 1.1708905874111182 -0.8582197188034365 0.43782670617515407
C 2.2448560327804903 -1.212972748494262 1.0619767645477807
C 3.4539674456075367 -1.589890014875467 1.7454665187005278
C 4.557476698404283 -1.0127703985145378 1.2462583402188292
C 5.628858495401697 -1.0499725586938462 0.4250773525377896
C 5.41189367286555 -0.5574728140816375 -0.9298079853832348
C -1.0093481980586867 -1.2264397811041905 -0.42503918909638083
C -2.1091448525268106 -0.3820386165710482 -1.020507577226437
C -3.2789666515403435 -0.9594590225414831 -1.1425767760100476
C -4.333229026372759 -0.1576607799873856 -1.7437873477587968
C -5.531265485696067 -0.6461912495769415 -1.8957601757999336
H -4.083578635659038 2.4795179768553397 -0.18696580164285725
H -2.751513726377813 2.661296302517995 2.6000615874854445
H 0.08844598641715014 1.4749165217124367 1.6104400728651924
H 0.9706033762556534 1.4675901928111081 -0.5625521195371058
H 3.5757291350013682 -2.2207303428690097 2.5167978786961407
H 6.467471371097907 -1.4439255614067474 0.8694587685805051
H 4.505552064320152 0.14958343800237078 -0.9007614709423083
H 6.228609446217928 0.10828476989973745 -1.2358046394857094
H 5.14651227960791 -1.3489235818012868 -1.6755023716190198
H -1.134153917577986 -2.2409395841598427 -0.2685796712984239
H -1.9399844270041982 0.5601318025165888 -1.4390061277794493
H -3.4546755376159686 -1.9818246090893195 -0.7555467656442649
H -4.123245005788002 0.8857543295205325 -2.0129079677761497
H -6.3175279091655465 -0.011472418502701875 -2.3824288018037048
