17

C 2.3220462181021935 1.0562451765147227 -1.5853938439769437
C 1.9813265624600807 -0.10822555883860939 -1.0663895064014826
C 2.0725814049869373 -0.3919503807100445 0.3828611659466957
C 0.9197524231120668 -1.1022597219049532 0.9128205939278748
C -0.16875485363620166 -0.9737852341081789 0.21210327385455385
C -1.3446548328567416 -0.604466328958245 -0.20005581605728665
C -2.0732475480958312 0.5266680141452134 0.2718765100917726
C -3.2589926247722567 0.858724824886759 -0.1756902185824294
H 2.6884745379005612 1.8641469400774504 -0.9584608176311192
H 1.622932355106989 -0.8814348309603328 -1.7250797430638625
H 2.16500790251056 0.5589613769150363 0.9735397458180316
H 2.966612743697062 -1.0334446190517401 0.5369403693536768
H 1.0026580287560127 -1.6550356645246076 1.7941502076180296
H -1.7406274083149162 -1.2182140325833395 -0.9352490050550606
H -1.6469251513636824 1.1580286238802882 1.037148933527869
H -3.813778936052227 1.7160637536512997 0.18048029435001478
H -3.69441082154138 0.22997766156943378 -0.9448261055218063
