7

C 1.3467298684083404 -0.0680579650575746 0.6906014968540807
C 0.21037948384803543 0.4097810801274605 -0.15082398399994404
C -0.9787451497628294 -0.10798027860639897 0.0340499645900485
H 1.9626546494664885 -0.7892530561059785 0.12591359623623916
H 0.383212386775283 1.1750221592423729 -0.8999301189232496
H -1.1240564354894376 -0.8576424958233531 0.7751230079855563
H -1.800174803245837 0.23813055622344287 -0.5749339627427297
