15

C 1.0405107037076562 -2.0448457018031707 -0.0709284604982259
C 1.1887301751055337 -0.5670723284235784 -0.09101282915015259
C 2.4863676367281125 0.0036156994575943053 0.2313946871329254
C 2.604374151725509 1.3246547830477469 0.20952640099722022
C 0.14265388302746074 0.1771613768254558 -0.39947270126994366
C -1.12719180107464 -0.4074015737274767 -0.7139679735936594
C -2.170997494181214 0.12565097347050624 -0.13536462140051944
C -3.173152035122182 0.7223364013118507 0.48930057089702944
H 0.23794104209606345 -2.3553481727718695 -0.763419637594121
H 3.306995011834829 -0.6204405840196986 0.47503348008715357
H 3.5592144327871518 1.7766906393239161 0.44546809277694954
H 0.25561509983655695 1.2491655847890206 -0.41260526985343554
H -1.3502410004308305 -1.2203123788720054 -1.3557903794290422
H -3.4031066924127646 0.30891825459546063 1.430831881450271
H -3.597713113627281 1.527227026796214 -0.045274375137638864
