37

C 5.1350688217121565 -1.8447233487927774 -0.013050673556067134
C 4.399404843995256 -1.3213263953700032 -0.9725563559596843
C 3.7696848901076114 -0.043187929428180304 -0.7522575687569273
C 2.5469053898500893 0.10909314128816287 -1.1769026679170453
C 1.2967450016755317 0.10520364775821639 -1.593072085916443
C 0.33647954083049203 -0.359800452262162 -0.6346884113284774
C -0.44881594191825464 0.41546464841570374 0.05035354025204848
C -0.39206432902288485 1.8299265393438489 -0.11985055446168169
C -1.3170527765491848 2.6038114444818925 0.8323223093419087
C 0.32002396236451147 2.588238104296852 -0.8824430862231999
C 0.14402402267341122 4.115507598871282 -0.8363403499925762
C -1.5118952329058843 -0.011362009458602912 1.0446056500573002
C -2.0904347756405244 -1.3271601607452403 0.8158868602509941
C -3.4353757873250284 -1.3663504693045683 0.948542666907668
C -1.467872392365468 -2.5892227405070245 0.47722705022009276
C -2.1443177757481675 -3.8042767103615125 0.9522562597448309
C -0.39590084863693 -2.7476945576058664 -0.1927754047933612
C 0.42069653976519916 -1.8386166307735625 -0.535979017652058
H 5.260532568209864 -1.3303084972976453 0.9081367308276365
H 4.304938327934317 -1.8824742379461876 -1.8841621526974086
H 4.163640272971438 0.8068902194914224 -0.2846932537469566
H 1.1756427677708694 0.4124303379903757 -2.5995150711082657
H -0.9104114351129242 3.6160295317493922 0.9853450656530109
H -1.3264686007773103 2.0749199155537803 1.810391535029297
H -2.324627534067467 2.676490054693508 0.4198190144088248
H 1.0717182001536754 2.3360050264564634 -1.5986165041340026
H 0.5953255565358879 4.564289551941772 -1.746373987653766
H -0.9328065807352525 4.334275263838332 -0.8162885362245436
H 0.6199043981445358 4.445401234413071 0.08726561739583812
H -2.334896372934939 0.7561209163934345 0.9136435718192066
H -1.116443950143524 0.06817080709075911 2.0604940642687573
H -3.9778276847457406 -2.2834240116828854 0.8037887211007013
H -3.9341912975387676 -0.4748067735892022 1.196958410952196
H -1.4747579754806353 -4.692704786906072 0.8354868835137502
H -3.023953123200974 -4.017117528907293 0.3093961379374625
H -2.4072942351197852 -3.6827350113379658 2.008368300527964
H 1.4066735449966796 -2.2409757317070236 -0.8207227079976943
