12

C -3.5337419634063703 0.13930809034059155 0.591211294411623
C -2.2833333998101133 -0.26549639383689344 0.4934372829088334
C -1.1222967704606752 -0.7112076868221525 0.0889985716884036
C 0.01685909133612629 0.22006572071009464 0.15768727738902988
C 1.2323313090490233 -0.2960590071708856 -0.49802949037132566
C 2.3091858321605763 0.4350982153053322 -0.4404905411099918
C 3.4613399073149043 0.9513093157576127 -0.03906553383144902
H -3.934814811415457 0.7208748397306106 -0.2335626789097929
H -1.034999437860027 -1.7198633648918484 -0.2747398913801583
H -0.24774247801092128 1.1753626712714793 -0.379287496057539
H 1.198950882505624 -1.2430607577228627 -0.9939121133354349
H 3.9382618385973704 0.5936683573289164 0.885281894626827
