17

C -2.8126938372631027 1.0937214007313842 0.45504513771651545
C -2.4528715270359 0.009019646904735704 -0.22485692334426646
C -1.6568323733638293 -1.0107015818147236 0.4680879998829019
C -0.3071569542861412 -1.258647024545061 -0.161501175315772
C 0.5471503588545646 -0.06426581297868068 -0.19710415175132537
C 1.7087563818621172 -0.06810527979372216 0.41724353840727907
C 2.627652988535984 1.1030145691192301 0.4251681272222576
H -3.3986490647749728 1.9015062620586058 0.03600900441463207
H -2.761682066073558 -0.07121285650590092 -1.251176118405999
H -2.1770368193131087 -2.000826554490357 0.4918332927533737
H -0.4289723026860463 -1.5879428013261836 -1.2367329738715682
H 0.19732171663074094 -2.051014804282478 0.4041414437194425
H 0.2388819528380646 0.819087904341072 -0.7193620410430464
H 2.053776673929726 -0.9612330445249645 0.9629359986937986
H 2.6234450690645845 1.6340554329817416 1.393152642785277
H 2.3290996283898004 1.802890209433744 -0.36023864998249444
H 3.669810174691089 0.7106543346915768 0.30065453741496795
