36

C 6.811925420861318 1.0784320036534496 2.087093749644226
C 6.343621703052309 1.1510965822980208 0.8562975701816755
C 5.592109582378315 1.3684909679191068 -0.20735538156753755
C 4.792139072475887 0.25255620355704583 -0.6652615373233768
C 3.5698839656444803 0.3866254962719937 -1.0890086767262637
C 2.4015684844083185 0.5141462737029717 -1.6285536204703615
C 1.1501665622440977 0.4981947718133985 -1.9914278657066424
C 0.20324800598062656 -0.4739454935720194 -1.4596871904574127
C 0.5309416828067387 -1.7185488944391825 -1.599751342792873
C 0.31685458750387496 -2.6385807432710293 -0.6948857113806836
C -0.746845955443206 -2.732825158870819 0.29671592214286224
C -0.8325467827348947 -4.016754126920212 1.0389870758830344
C -1.6599605418008314 -1.8360769888849877 0.6405807910062445
C -1.7847464919535303 -0.504289371649485 0.06003054712355272
C -2.97316876344032 0.25137806498239323 0.57711288976029
C -3.106758149783632 1.5570263886127915 0.013593709501010914
C -3.2737979605119136 1.7607923115335407 -1.4227547025675562
C -3.0739532357605435 2.5520581574135064 0.8482444591010839
C -3.4057608009348384 3.585296356282922 1.564424098826868
C -1.0092400121509193 0.0921557230950283 -0.8290972269320813
H 6.156673038825853 1.235403087717781 2.9386725081354754
H 5.639701784762537 2.345858153047675 -0.6348362934211264
H 5.229492910601225 -0.7343986665295977 -0.6544772653868474
H 0.7873011540460534 1.214519594397347 -2.7021496495181454
H 1.0652104440095067 -3.4249036572289 -0.725170684697003
H -0.7405379075888806 -3.862192487515696 2.1357643674725524
H -0.08119769215128739 -4.737385302232388 0.6975744374196392
H -1.836613343307155 -4.470816208545448 0.8832268326804906
H -2.363588679097776 -2.1037344204351354 1.4030558705059128
H -2.8937828652274247 0.18818078101898197 1.6806262414952913
H -3.848386453172176 -0.4234745111935541 0.33119162351007514
H -4.3261745929012 2.011033981602504 -1.7034396091839836
H -2.98163460914824 0.9155073950994321 -2.0522358446877367
H -2.6922685407557045 2.6906125599479735 -1.6952641412659897
H -4.372626380907589 3.8452438145174153 1.8842636751631694
H -2.5872486408289235 4.183317362803437 1.8179003745309186
