12

C 1.97379861198522 -1.3158800467679477 -0.15007545255998891
C 1.0226803911319415 -0.40431781992797405 -0.16851543418803103
C 0.6016142224182016 0.9389416199767593 0.40881089651451996
C -0.24728489496805886 0.17455663862560258 -0.5907853542340744
C -1.5589420058927095 -0.2889691021256882 -0.055999622407504175
H 2.8554674034365912 -1.2049795813617736 0.4626016268400583
H 0.3377085232433941 0.8598044435337685 1.4874602298269737
H 1.1274474278658337 1.8305564891955455 0.0718720753485214
H -0.24502907587846903 0.6060801470571415 -1.6236128387208408
H -2.3538380386493967 -0.1501412288430751 -0.8470009079905281
H -1.5839988582499651 -1.3698824224717152 0.19396522340460706
H -1.9296237064426018 0.3242308631093616 0.8112795581663025
