16

C 2.8916123264635227 0.7510266569599864 0.2515784888963218
C 2.3050187722818527 -0.09759883539524994 -0.5974497384553121
C 1.1249710050266482 -0.8898603524537347 -0.226498516389464
C 0.23224311655881222 -0.20824740304819317 0.7308022285717166
C -1.0260934241587314 0.05065262327216762 0.4161627665216261
C -2.171372832805661 -0.00667468939883687 -0.5647770740596189
C -2.390191046302782 0.6250608516688774 0.7715249471747117
H 3.750780948359514 1.3237524989471612 -0.027823792525884985
H 2.723529392134598 -0.19688279254691296 -1.593061696544732
H 0.5544955728919304 -1.140330764194059 -1.1661279651834358
H 1.4058485128098994 -1.8801444211714342 0.22187408862246777
H 0.6202030110657432 0.07716483373534917 1.6937215548231241
H -2.1372561252181916 0.7430154891675154 -1.4094624898629797
H -2.673808140119321 -0.9657895133502566 -0.7331907547520227
H -2.3557896664060984 1.7289996737657218 0.8708677435618298
H -2.854191422581734 0.08585614404187333 1.603229562502428
