32

C -5.970637461510347 1.9617611032468767 1.2696169197893457
C -5.136794202559868 1.1252303803422574 0.6963209293796435
C -4.671076394394512 0.15152875861285903 -0.027671329764857172
C -4.18273464836519 -1.1267422408448908 0.5264642671667086
C -2.7384616732357743 -1.0293169408280356 0.9841354342610852
C -1.7963918348594972 -0.6807324825248198 -0.03636456862531992
C -2.298334818459829 -0.4881286569014122 -1.2232153199072635
C -2.633902519037231 0.13098276851552101 -2.3202626406716487
C -0.37309507895994615 -0.5538916997305279 0.2708716322103893
C 0.41805409790506654 -0.18178869657194555 -0.9534507156458539
C 1.7282447418614495 -0.03295006175639384 -0.8472069571385552
C 2.395894107934928 -0.22233382535737722 0.41781250065706305
C 3.6790372666897175 -0.09970871948882686 0.6273303519382112
C 4.6396408892978345 0.2545857746901299 -0.41439613606966097
C 5.333450430942839 1.523527492451268 -0.038241064837677134
C 6.467636639286509 1.4838076499812625 0.6330635222881247
H -6.581351871345146 1.6325042769248561 2.109379312437585
H -4.7979657410633765 -1.3619588148358575 1.4245988225995754
H -4.32380094231901 -1.9570038168956385 -0.19413800455022567
H -2.7396564453964283 -0.21502567353326865 1.7684503581656383
H -2.4423252478682302 -1.9413075723283737 1.5324022684504401
H -2.6636072773616695 -0.5326074780055549 -3.1288960428883614
H -2.8566134090843156 1.1492597059658034 -2.453735111678112
H 0.038518953060876646 -1.544188033569462 0.5985128421918736
H -0.15728245812668623 0.22869466172826847 1.0424456393134078
H 2.2657538334331666 0.22860659782320916 -1.7186415241554227
H 1.7870424437887642 -0.49569476253543987 1.3008137276449994
H 4.103920239691225 -0.26404415178055163 1.6325109707640277
H 4.20230579381562 0.4040000951132835 -1.412113951592713
H 5.430386801181981 -0.54803017422017 -0.45139893893755684
H 6.941763196446128 0.5568381174291113 0.9379796525472903
H 6.932382588611377 2.4441264188836826 0.8820677575537791
