19

C 3.8267611005256 -0.9996513001471163 0.22409525892723967
C 2.547266704736568 -0.9834367840529379 0.5097500879251008
C 1.3747005398339431 -0.5293155119040319 0.8813317168644962
C 0.35028115968883566 -0.4104531130243277 -0.13517696395499412
C 0.42692217901249424 0.6311678653786875 -1.1482450463078246
C -0.24078179559737314 1.7509200198727322 -1.0753524584870766
C -0.8660704148534905 2.8713707481987436 -0.8714729302437522
C -1.5341757204714326 3.8997034653899183 -0.38836521320446016
C -0.650593634887908 -1.269782730439716 -0.11700166259926487
C -0.7464396361789638 -2.3193940553727628 0.8876027494526784
C -1.7366596058240107 -3.184833067811013 0.9214007577663822
H 4.329772017259186 -0.11088189589917952 -0.15064985923551705
H 1.1292865468947053 -0.23924962580496698 1.888906408210154
H 1.0591922865866423 0.5078669411435722 -2.021826945547221
H -0.98085335579005 4.813832089416565 -0.2500325553595926
H -2.5899678268789748 3.8247189490415843 -0.14330214804356953
H -1.4189492633665906 -1.1897058061728603 -0.8700191429265105
H -1.7645154178126576 -3.943073983875001 1.6832160556603357
H -2.5151758628764767 -3.1198022039379776 0.17514189110336184
