9

C 0.1507495622912928 1.2778281200171218 0.6180644189834916
C 0.1395301945843585 0.10945346217463534 0.021309030000533996
C -1.0311379779438674 -0.23846288152974318 -0.8120031434337468
C 1.254929747113546 -0.7979773154472382 0.18921541660098495
H -0.6906903099377181 1.9337608013100427 0.47696419846449645
H -1.666956834254959 -0.9275908022484823 -0.2582202661200126
H -1.545759136068395 0.6257937184098241 -1.2499295620765634
H 1.1324255355640962 -1.6126822082102867 0.9014862401073612
H 2.2569092186517263 -0.37012289447574404 0.11311366747336092
