38

C 0.057980968314848856 -1.4209313536817187 -2.4897247569511256
C 0.36354799971449414 -0.6765527351455638 -1.4568351073000414
C -0.6145915612773994 -0.12790973269208392 -0.5293496223048988
C -1.9103287551165176 -0.33907871929450906 -0.6554742536085226
C -2.83028200387917 0.2483738023170984 0.3199747033539195
C -4.245334759019812 0.18625049982085207 -0.07632927726816717
C -4.797399862789165 0.34579503615382556 -1.2608914270161051
C -6.277098625128338 0.18970572795107435 -1.1645818661949843
C -6.495531558378582 -0.08698372938146928 0.271141098668576
C -5.3331110535413915 -0.08276400291291297 0.859038391823641
C -2.3677280960706186 1.5980092136214274 0.6643529621806537
C -1.062610869060793 1.814079359149307 0.7955561284759312
C -0.13863050189429116 0.6923993648512189 0.5902092173413941
C 1.2696222438458789 1.0443210954470938 0.5545380062619294
C 2.090477230461268 0.5520623582213042 1.4758584157063364
C 3.552401653101224 0.8695238613588179 1.5034985047873943
C 4.316744865886143 -0.4547958244945526 1.3639687795161592
C 3.9231592775105018 -1.0664401365537033 0.07249416306544944
C 4.832414999398726 -1.254826582814258 -0.8604675327682546
C 6.2341709884021475 -0.8523616454886822 -0.6041704448704641
H -0.9639450616865913 -1.6677009192701173 -2.704983732453209
H 1.4323242092135602 -0.4811737647320193 -1.322377142084483
H -2.331288059515589 -0.9321146809579901 -1.4538788252673993
H -4.2773828016986455 0.5583110110056952 -2.1783269820283717
H -6.563484608273632 -0.7471504733862115 -1.7168825853310938
H -7.49540646530007 -0.2537778180345446 0.6798836476103107
H -5.21885121445059 -0.264795660558277 1.9393169818725988
H -3.1047601888994127 2.3816505824784278 0.8021723571870641
H -0.678145155482826 2.800814663517195 1.050182215642394
H 1.7099714871099783 1.6979450571895813 -0.1909397801924159
H 1.7286027261507788 -0.10847237412258928 2.25519132463657
H 3.8503669676472336 1.574032862769548 0.7117407035804777
H 3.7999095587945 1.3400649210563536 2.4786155085370813
H 5.40457593955632 -0.22790256229839123 1.4084705084814229
H 4.107900978115519 -1.1072463085836306 2.2352562157085054
H 4.527766360676732 -1.7020337234192888 -1.795979539092842
H 6.717156969381765 -0.6580658256972289 -1.5810028120664263
H 6.786815778182249 -1.591896651114858 0.010735852360781416
