13

C 2.130405956042642 0.3133157624566892 -0.10882250755813414
C 1.366453150401195 -0.6421622213361303 0.3998061494975538
C -0.017301284405085948 -0.8905853705436799 -0.12569660358732285
C -0.9509895194577244 0.19004439707186443 0.24468498162094793
C -2.02182306281206 -0.06853729269937 0.9680173427803783
C -0.7104765163438009 1.5887589387361984 -0.18497500644825762
H 3.110031818776362 0.4662834592578687 0.2855544894805965
H 1.7715835714082915 -1.2428813553869138 1.211002475139613
H 0.08787908400471783 -0.9632272016385283 -1.2426780367033836
H -0.3232643499886686 -1.8790119298505599 0.2186458340387432
H -2.203015587375335 -1.0870214911868608 1.2846730408266587
H -1.5589025723866343 1.9841051040946682 -0.8089436266432166
H -0.6805806878636509 2.230919201024662 0.7185520251834502
