28

C -2.2879457513689117 -0.25578402123045535 1.4882090152708136
C -2.2660431243323687 -0.9983067153321885 0.40169436879551007
C -1.4276112754823114 -0.614688712269336 -0.7457489182311393
C -0.7693034022849945 -1.911984476985861 -1.2835142052990716
C 0.3325891459924488 -2.09075711425841 -0.2817039034781215
C 0.8234699892847077 -0.706912255035964 -0.13905852964615642
C 2.06741868050579 -0.22941268710367582 0.18341617942680177
C 3.1946954611903493 -1.184110304408037 0.42721751199074837
C 2.3230704479958213 1.1074863980347598 0.29291304790200934
C 1.2743465589375202 1.9717750805485545 0.06661594657332892
C -0.018065630198006746 1.531100274817723 -0.26571007541959907
C -1.0176682095811713 2.558155661900218 -0.4685731501158369
C -2.296641907731065 2.4347150051382127 -0.6438868075807941
C -0.23973139321898976 0.1752866818427814 -0.3706902049374483
H -2.8763855795002167 -0.4724194505968461 2.367380996682223
H -2.882442901943575 -1.8981989107453678 0.37780917736278696
H -2.0287872460311003 -0.1817411037389117 -1.5757128459613239
H -1.4870205036136477 -2.74118321380525 -1.2462494439559095
H 1.116221607213816 -2.7953817115184156 -0.6151720188507811
H -0.15762257015467257 -2.455883337943231 0.6666726213879981
H 2.7130240561644277 -2.102708324807883 0.8619875598440994
H 3.893184984140071 -0.7873496931063835 1.1879683723200862
H 3.6916505137375233 -1.489692851312893 -0.5129206078111336
H 3.291934133176764 1.5133366446107432 0.5442636748447535
H 1.4478768550020367 3.052355462985762 0.1491148082883795
H -0.6416978952660966 3.6169372386658067 -0.4855398905201695
H -2.8947850883440496 1.5754394463972379 -0.6770406247601759
H -2.8777299542904795 3.379926989257456 -0.784461107010919
