32

C 1.4691664994105376 -3.0006877420598648 -0.0593778447983781
C 0.41301491091585407 -2.173159363258983 -0.09555669906241274
C 0.6600165406386436 -0.7212770435899702 -0.26414087016945403
C -0.21918873272518793 0.2562293136757459 -0.32963009922414205
C -1.6906772442514295 0.11422785515488486 -0.24656876218972668
C -2.6355413837270327 1.1290031640113578 -0.3124881562602824
C -2.830805665772261 2.3636799294511306 -0.43667614317184844
C -4.251846747603017 2.9337529817012924 -0.4326890592978329
C -2.143027228522367 -1.1525978519732898 -0.08894262095237938
C -3.558124320434575 -1.377069956338524 0.00042249695665408577
C -4.034264231799124 -2.6061028927131136 0.15502531928682997
C 0.4780889036324553 1.5232881121415491 -0.5005986476812309
C 1.7820378717134289 1.311755090520023 -0.537470119903772
C 2.007928299019109 -0.11753361837880351 -0.3898371490123395
C 2.9026936680996402 -0.473182545248994 0.7163751915634824
C 4.191226645471322 -0.2024247006284015 0.6365501714265156
C 4.811220743126091 0.4624442100025685 -0.5441099003765072
H 2.4819909918487486 -2.719847405991097 -0.1404887016656305
H -0.519771849133943 -2.6544464606596474 0.0031776030546480406
H -2.0807591160095997 3.1625794204201987 -0.5573613545603224
H -4.420340852541255 3.4762209745384594 -1.3840712713681624
H -4.971005786061484 2.08042326287716 -0.4038067807850505
H -4.281658747877862 -0.5501097683393285 -0.05555908101286627
H -3.364803654415682 -3.447113746585703 0.2150117742912278
H -5.077413918883869 -2.7957832006274015 0.22352959546984233
H 0.05884483659938052 2.534052581015646 -0.5921429256086396
H 2.560784983934097 2.0925300649769767 -0.6598265357280112
H 2.504583866462458 -0.9536203646994175 1.5888512401235473
H 4.82757465740597 -0.47297457023898404 1.4609703485486845
H 5.825668461555464 0.07489704265392907 -0.7683012418277128
H 4.153632960564887 0.33674861477544593 -1.4310423161910268
H 4.950754639359486 1.5660986134150892 -0.3528436277241309
