24

C 4.861922870636701 0.933140036419123 -1.3902085271377254
C 5.285753041944171 0.14295351678974522 -0.41066220526684305
C 4.320778899110367 -0.8411287719988119 0.15329835676330347
C 3.1380427642777695 -0.17889992820312395 0.7639322831085399
C 1.9566978620452766 -0.17456523280219646 0.2018900928373082
C 0.7857145570859052 -0.3610190683341431 -0.29212079452974093
C -0.4680725393539105 -0.5236118239143908 -0.6303494807921042
C -1.437999769636553 -1.238779953906276 0.22761234073952896
C -2.607858264438968 -0.3167465230337394 0.44741337500641365
C -2.721766974606932 0.8898535615521186 -0.041225196116244485
C -3.965980691210283 1.4891563043414242 0.3667022357566939
C -4.611448560365097 0.6185055542676301 1.1179288922088841
C -3.812084375296977 -0.620229267336098 1.2457281984446256
H 5.46235868043831 1.6805384907379983 -1.8767292985470883
H 6.2951776004100655 0.1949301935437351 -0.01928976532720707
H 3.9503656154663536 -1.4531832836173117 -0.6953708710255418
H 3.277542766685155 0.31692692338578166 1.7155158013134708
H -0.7461512428248869 -0.09244410988874921 -1.5929263232184554
H -0.9285298716160022 -1.474271227458689 1.184649560081631
H -1.7933484076337347 -2.1811986960830563 -0.25500992655781324
H -1.9825646744350245 1.4093554227823089 -0.683444074214883
H -4.3449526866565025 2.4986607026239884 0.11328503733853178
H -5.587860700102236 0.7709872722342733 1.5832003779184889
H -4.325735899923023 -1.4889300921014952 0.7440532886976525
