24

C 2.5167384566249695 0.9292855405454414 -0.15325931631756118
C 2.4005877173371917 -0.4118589639792191 0.5912806244856766
C 1.5611009231728887 -1.4136040659747025 0.20198350479558488
C 0.7051126684778187 -1.3004122320574971 -0.9505854569284333
C -0.6316002401566118 -1.5471594000346014 -1.3228038285811932
C -0.4677640508350918 -0.4860168122267122 -0.42947517015849274
C -1.178708203314678 -0.6028356087749446 0.8867581844145546
C -2.0133538799410213 0.7114870833271051 0.8304507020940527
C -1.3899036824392352 1.5408479374208461 -0.3325938681176678
C -0.056334544838014734 0.8763991578082095 -0.32112225912599274
C 1.0853994883113065 1.481436891793077 -0.19173615409732067
H 3.124944216863928 1.608492457612697 0.44232261277421053
H 3.0185645472969687 -0.5211712886362413 1.4470574851770492
H 1.6067250474584063 -2.274253284000297 0.8325514624520208
H 1.3124477263084524 -0.8445434525660491 -1.8371486343047532
H -0.9479579922010494 -1.4184295030555008 -2.3860867010157176
H -1.1155394416440236 -2.497130772027855 -0.9365005194511089
H -1.9319789570296242 -1.4080236194004212 0.8116118639417867
H -0.5365537539260806 -0.6368026701316949 1.7624477749473946
H -3.0656338423194462 0.5285632814379255 0.6799260075449088
H -1.7411166707467536 1.258473447484139 1.75422978679564
H -1.989735321282678 1.275686363498394 -1.208112009659464
H -1.3595429997836013 2.598843831770508 -0.0796749687392092
H 1.0941027886060517 2.5527256801675926 -0.09152112292602951
