17

C 0.027457451744435483 1.189483056686454 1.1634766618037595
C 1.0813623550968303 1.378290190756604 0.15365328349763113
C 1.6901110595972995 0.42230613171557296 -0.5280125236008192
C 1.4691585672098344 -1.0242183784390517 -0.44649525321346306
C 0.29749237309703674 -1.5541421453657553 -0.04994439260640759
C -0.9621854497851443 -1.007282484190184 0.3705578152687447
C -1.506401682364891 0.0717143748253283 -0.6161638787592698
C -1.1201982655646416 0.3448675692501972 0.7907995773987591
H -0.3189429723386787 2.197635755111506 1.4668404170247191
H 1.4223337633406674 2.380975118664775 -0.0860738816391706
H 2.4639676319764443 0.7050678757163901 -1.2552754166027291
H 2.273041358211023 -1.6971792521830862 -0.7155599804424013
H 0.3642408926244009 -2.636412261790807 -0.06701718485388632
H -1.7488843185307323 -1.7629183089986766 0.6699317285643152
H -0.8386943838442176 0.45642098703287726 -1.382071210905716
H -2.567137357600163 -0.02771740919834432 -0.911459239641235
H -2.0267210228695105 0.5631091804061414 1.4428134787071476
