30

C 7.035844274610592 0.1523831987625107 -0.546501269587579
C 5.784940767290291 -0.01904227605605416 -0.9502096937731678
C 4.528906389808604 0.15688093552551546 -1.2449249114442649
C 3.483970131194861 0.07322098405857601 -0.2436109007777555
C 2.6725926119176475 1.0899053480217595 -0.046380023362823104
C 1.6109135921452638 0.9935029667811675 0.9771040071596587
C 1.2833146920551735 -0.46160222396897355 1.14382158633659
C 0.3033443150812956 -1.0025450944411098 0.4583214245882912
C 0.004195911194328889 -2.4347827070481873 0.6427114442973801
C -0.4592084299396599 -0.19365736084535987 -0.45712350598995377
C -1.7464135654922426 -0.43097384163360075 -0.4884478506672667
C -3.034995470505734 -0.6786937994454002 -0.3981113889581333
C -3.7398030541896676 0.08186771486297069 0.5883028861961376
C -4.6454847489039475 0.9889724044956247 0.29155503337425787
C -5.805819701369066 1.5045719325957052 0.006544268142339647
C -6.898425683181991 2.0785962074401247 -0.3850618510273759
H 7.332725567966255 1.1321358634279537 -0.14709208488941192
H 4.274673142923658 0.37198844841775713 -2.2647313358282015
H 3.3906645058290974 -0.8363476371760945 0.3297544954603578
H 2.770644938236653 1.9927640123649422 -0.6204808684495552
H 1.9814655862719581 1.3615177879219886 1.96015166405182
H 1.8776672031113355 -1.0618610599195335 1.8479877819606865
H -0.9040676221321905 -2.7604655908360964 0.10553645330007817
H 0.8507528456620297 -3.0920480191778994 0.31399521927179175
H -0.16430781398934383 -2.690080406362402 1.722577747450191
H -0.1413279402689332 0.5676168640929079 -1.1112219528363405
H -3.3751738591647666 -1.4137472312484403 -1.0727313713278332
H -3.5209852611440806 -0.09363072468764332 1.6328597666376898
H -7.82198234481866 1.8132170072746745 0.0977891817679431
H -6.92862098020003 2.8103362968023826 -1.1721162883248348
