21

C 1.348084713261633 0.30863075036445026 -1.2183631705973905
C 2.805106832448301 0.4804277577246235 -0.9830161633873686
C 3.1902572204138755 -0.20860862027696134 0.0770781619444002
C 2.067895649598912 -0.9448204943736738 0.7162602576123744
C 0.8811327764604054 -0.3614731484434679 0.022099651428317418
C -0.3783013269843168 -0.41675014217759526 0.4200154577626314
C -1.444376316525651 0.21095450009401734 -0.37796799908587275
C -2.644895419313374 -0.6481484456546085 -0.4927499838591976
C -3.3471300813181064 0.29915247789626515 0.10980272077349046
C -2.240627293162335 1.289328658140907 0.3072161368954322
H 1.2266318305565096 -0.32004346504076253 -2.1181371674945493
H 3.50808280144703 1.0915704642038093 -1.5870972065232443
H 4.239737661450045 -0.2307645021630504 0.4448254926039021
H 2.155197723340342 -2.0273797753185896 0.5919337592848537
H 2.041070553501104 -0.6264606419305104 1.776634024072445
H -0.66350044030113 -0.923617002441792 1.3418499038526486
H -1.12198899786431 0.5669261296435774 -1.3803608119164998
H -2.868418854404774 -1.6205227234579547 -0.8893910760086114
H -4.393215716525744 0.36880493497365424 0.38773372630507624
H -1.979364011220289 1.49059189477547 1.3609129270632756
H -2.3813793048583545 2.22220139346228 -0.2640272484836129
