11

C 2.065066582234932 0.050403965859047044 -0.36931297322464224
C 0.9694208103823478 0.6720697171882968 -0.012488878184161748
C -0.18838444515810568 0.03233589584777572 0.6702301592498088
C -1.2206604974365303 -0.28190518621163557 -0.3873014699384729
H 2.3016025777162126 -0.979336356159562 -0.23525277975277803
H 0.8965758735563987 1.733128286835636 -0.22912858895073956
H 0.16304806403848576 -0.8840213251421486 1.1862219229735589
H -0.5931243711133292 0.7127468010545132 1.4520985736802225
H -2.246591064381964 -0.3611783865406607 0.016556754310117612
H -1.2384989772630004 0.5150121767684127 -1.1662749198851996
H -0.9084545525754539 -1.2092555894996735 -0.9253478002776949
