17

C 2.636688821916453 -0.34150309121413636 0.13807580889239943
C 1.641146718249537 -0.04611026120293102 -0.968671784197671
C 0.618042901381481 0.9839308952101256 -0.5294344425761119
C -0.15780612222121573 0.494307808039409 0.6712917141841729
C -0.9041690535536949 -0.761158478755881 0.4324013872960917
C -1.916652712413625 -0.5680459317974317 -0.6988226656176648
H 2.9766638978898676 0.659568499894094 0.5119623615379031
H 1.1067746942263246 -0.9658145341560616 -1.2892573442724828
H 2.138779270554262 0.37745720340241107 -1.870131597367034
H -0.07368160214059498 1.1328445127508555 -1.3710796303856585
H 1.1837697104469278 1.9040017983685127 -0.2772565410390753
H -0.8574400940370556 1.2839900005882672 0.9648254431504254
H -1.5088849078405362 -0.9849421073754807 1.3341452379069958
H -0.29654844330547653 -1.6298019162519368 0.15322706508788672
H -2.588382643367601 -1.45862546055769 -0.7296760346101705
H -2.5665061647951664 0.28667327829607964 -0.3520979270343791
H -1.4317942709898446 -0.3667722152381902 -1.6609305189591048
