9

C 1.063410854461503 -0.8270951615384644 1.2210690215271178
C 0.39994976401188936 0.10673927976671917 0.27411351709291615
C 1.102138849621339 1.1956915182340349 -0.02670910129937243
C -0.9293999724274825 -0.16188916303415235 -0.2811215273120903
H 1.6017064137175567 -1.6456807700744782 0.7297166465359796
H 0.6717848943514572 1.9161414362339078 -0.7129095510575727
H -1.6150081135091185 -0.4045259393018523 0.5793328401234383
H -1.3189199385432253 0.7777933303003978 -0.7600513643076209
H -0.9756627516829788 -0.9571745305849586 -1.0234404813038107
