17

C 3.600432337924294 0.49597274246285333 -1.0709679310131
C 2.287563464326403 0.7058958822890676 -0.8521959021801307
C 1.4777341779586564 -0.2978046968166461 -0.19621414992321767
C 0.20723131220579194 -0.17100908545263338 0.0506056650750168
C -0.5069461311983321 1.027220087834533 -0.32881764025778293
C -1.8183460542945797 1.0975840824590481 -0.0462543220194498
C -2.5793266977393445 0.03272744798278726 0.6260822893865516
C -1.8005668573483313 -1.1521059943027978 0.983834934405765
C -0.5181492784067129 -1.2442443832128682 0.718247073391504
H 4.006576688983475 -0.44627305567613734 -0.7352702538741774
H 1.9032428620877408 1.6422461612115342 -1.1904288356212405
H 1.979351571043362 -1.2269598329615856 0.11052673765049979
H -0.03115285868214372 1.8826183234881513 -0.8363472159161127
H -2.3506501759830614 1.9882151623006172 -0.32793014003853915
H -3.492962053521484 -0.2012371555389608 0.0167929377309825
H -2.349752977607485 -1.959994465252522 1.4871430497341527
H -0.014279329748289167 -2.172851220814481 1.0242046070596282
