10

C -3.1061245612091257 0.08247745633666578 0.062290742200148866
C -2.0492815016740624 -0.3219120124573805 -0.8958993076336284
C -0.8169219022548869 -0.5021840188449583 -0.530844563715071
C 0.4125185125364948 -0.5227306365950424 -0.09869895792851412
C 1.5755571771146992 -0.30567382682719824 0.41670647013488904
C 2.677589397970496 0.24406242583558652 0.9007899766004925
H -2.6430420170501665 0.8334368945180733 0.7467957476041037
H -2.3422083745207596 -0.4638451708168928 -1.9230995042819101
H 3.5696973513045673 0.3271275512019209 0.3034738824229475
H 2.7222159177826923 0.629241337649226 1.9122141395268981
