14

C -4.427487546002132 -0.6766690348903948 -0.22591568301021073
C -3.2125639508822905 -0.2274945684267306 -0.36922927910383235
C -2.0656346447493377 0.35812427509529343 -0.3054880863227641
C -0.8941283984574192 0.8253936372355481 0.0590992165799191
C 0.2548974309820917 -0.05596587890425333 0.13474131654431315
C 1.4900457477859799 0.39036468044119776 0.15263583945747847
C 2.6239713425116795 -0.5034699459292156 0.22837595446010245
C 3.87279692169695 -0.08208680419169667 0.24785630322858207
H -5.171277813082912 -0.49889830441983374 -0.9988769144652108
H -0.7701253397439676 1.8893833315342872 0.31120002330397817
H 0.09103523980319714 -1.1156960682111288 0.1779210800873508
H 1.6433562555526624 1.4610328057976143 0.10864814480815972
H 2.46255277562611 -1.5705706842457186 0.27191120695954213
H 4.102561978959464 0.969805699902858 0.2071208774725929
