29

C -3.7418547780788933 2.062275596616862 -0.01806210559207651
C -2.8507047712358875 1.5253440209354352 0.7956693918959352
C -1.4110940452290779 1.8991843123005019 0.7386685652037831
C -0.664791987887342 1.1949551588496665 1.805251300863583
C -0.21023257002769477 -0.004729460957538849 1.5366305173416366
C 0.2090733577254659 -1.1038824830139788 0.9248520664728594
C -0.68120168292804 -2.2185752160367205 0.9984140464456066
C -1.4355930891731046 -3.1604727731062834 1.0396047779372546
C -2.3413695857817203 -4.313759795480043 1.0683843569334541
C 1.4836966811771983 -1.1062741929982913 0.2443319830841414
C 2.3775604123150047 -2.275503156764432 0.4215502451018108
C 1.8478269058887857 -0.11772329594126127 -0.5045896803159542
C 2.102600337319076 0.8299371709359502 -1.3601847603538548
C 2.164580118208334 1.818165624453681 -2.200937877325419
C 1.5868826717748417 3.1283500576114642 -1.9470510546026747
C 2.312552776088064 4.193209483985104 -1.803582429902026
H -3.472901521195132 2.799282571044372 -0.7659137556798226
H -3.1888885305229233 0.7933589288713848 1.5208773333030057
H -1.2969231121034708 2.996068853968478 0.9480467971218123
H -0.9668842277044438 1.7434033152524329 -0.2661699708030242
H -1.9704602528454365 -5.0207314219748875 1.8677761953884153
H -2.324150195575643 -4.872625077184559 0.1025108678172198
H -3.3439852049452745 -3.9579132914549655 1.320928895486447
H 2.0401331732360717 -2.9158043546984276 1.2662240107820937
H 3.4226140872544653 -1.9811227372022704 0.6707227527221196
H 2.447041622602162 -2.889425919951513 -0.5023824560444103
H 2.670261669697837 1.6645624288091105 -3.1390131920518325
H 1.857715831423261 5.150877119303571 -1.6163044558896646
H 3.3784959105082994 4.139568533791088 -1.8688218790462507
