29

C 4.516839593639903 -0.003202868822914412 -0.8032543666004341
C 4.007016131439035 -1.0098071525546928 -0.08706893034172612
C 3.5746575993592464 -0.7343945627452296 1.251484200480676
C 2.8627514374052527 0.34572594551205027 1.4113050527644202
C 2.0685933798110767 1.3956397324308307 1.4640048163567254
C 0.6820168970961104 1.147516272383297 1.2528993614484267
C 0.22707702951624345 0.7768429284106543 0.07100476031256146
C 1.168698396682429 0.6303398055982119 -0.9972966127833439
C 1.0263562339939998 0.29085796104866213 -2.226730997062987
C -1.198932637752803 0.5373689363520939 -0.08559148813191905
C -1.9646337798186442 0.7069080812814522 0.9771523301181857
C -3.3880524080610055 0.4821760826207127 0.875881858438253
C -4.1697722549480165 0.6517059890196719 1.9472720519979718
C -1.8386394342768004 0.12879180538099463 -1.314254945325985
C -2.1515009629557222 -1.1427200991281177 -1.394605497265409
C -2.4365071521205857 -2.432183785710108 -1.4038376969758006
H 4.61188564279528 0.9980897797005551 -0.40986869197003517
H 3.9600695080234702 -1.9704998418221495 -0.5832531394616779
H 3.7411970073731675 -1.2734138957071517 2.1402727569424096
H 2.583211893827985 2.2964710117456213 1.6588702141832736
H 0.0018818711926647637 1.2683778884608008 2.0823592037065493
H 1.9378530462886971 0.2581616541647969 -2.8411622031097057
H 0.12470207647047177 0.034695065403295276 -2.728630944161139
H -3.8189675336801048 0.1778667528026149 -0.06376987480707282
H -5.230523040936839 0.49116802650999936 1.898481011487554
H -3.743670181421098 0.9541374766095123 2.882254868266481
H -2.0954143924627773 0.702133204121874 -2.160309112855285
H -1.6666609766521634 -3.041759777049293 -1.7941953269072475
H -3.391532989828436 -2.6669924160177443 -1.0194126587439492
