20

C 1.3547340078096062 1.189880771201951 0.7211818510511278
C 0.545496538921845 0.17585247016556732 0.9270873620018981
C 1.0821515700004332 -1.1734589503722552 0.8489051093530494
C 2.3389636627042356 -1.4534154198752043 0.5826840195455004
C 3.371166897617336 -0.42350175971889353 0.3276818272247133
C -0.8764198688059682 0.44866989783780953 1.2295739474866039
C -1.7786550845795037 -0.1613645402486617 0.22080151408546342
C -2.5952106048504326 0.5991571323399066 -0.49472071761123904
C -3.514698273181359 0.017079265678899117 -1.5168243536549055
H 1.0908999494535947 2.216572184581567 0.7491311367528384
H 2.583957199741291 -2.525636875786922 0.5601270780686715
H 3.565568146008298 0.2255941000182357 1.2108398247247418
H 3.162588446184316 0.16650042324841194 -0.59895685161797
H 4.348927164158957 -0.9603595509794992 0.15969088720012872
H -1.0676448058788304 1.5396914878162231 1.2423389193890044
H -1.1172063997161867 0.09107679957208777 2.262859024466118
H -1.7372646838749928 -1.234536107434089 0.10141041044755
H -2.6388063948883835 1.6759965365405765 -0.3770359128249886
H -4.392780241684217 0.6344171853162667 -1.709812753721955
H -3.7257672251407077 -1.0482150499021938 -1.3197102799542488
