26

C -3.627977646412998 -2.4233137708100814 -1.4567757438009559
C -2.4068874185419173 -1.914416212990804 -1.2156905622482261
C -2.2848595426431992 -0.8407284982164411 -0.2629759179903517
C -1.174640354032394 -0.2500573386835882 0.07168428381759254
C -1.2119100955027662 0.8520991797741868 1.0795176241857802
C -0.6906707879602019 2.0995579021776276 0.46013939311705593
C -0.8353887336100649 2.385600302029228 -0.8205915969079058
C 0.13159379025375045 -0.6132389922010136 -0.4986222406009527
C 1.0900447874090946 -1.0634396936235866 0.5227841732920077
C 2.235473771530177 -0.5036859548462895 0.7818685925959287
C 2.748685056162185 0.6688009662976504 0.09079254766468099
C 3.920665847425047 1.1660235706062279 0.42172496893030753
H -3.7682421119512783 -3.216325500177073 -2.1513651931986844
H -1.6048513633465213 -2.354129582657413 -1.7591642731889843
H -3.203926076995475 -0.47694469692148056 0.23429058734330058
H -2.218727720049413 0.9681119798631656 1.4913974537475243
H -0.5386663891491876 0.5900138447827958 1.9197100767124802
H -0.4251975489142097 3.3132858039105955 -1.1839701944747325
H -1.341745269432266 1.7470886741920209 -1.5359236434671406
H 0.51187805821879 0.272338593414138 -1.083511774624192
H 0.03380285245965875 -1.4036394071738334 -1.295145801436591
H 0.7956439973189847 -1.943578509944703 1.1010614786786805
H 2.8702363084848845 -0.9455464263888057 1.5840613058747262
H 2.2045739764180956 1.1557208965589147 -0.6908070491315407
H 4.491475719938019 0.7053846850243419 1.1982925578867225
H 4.2996168929223835 2.0250181860081486 -0.08265202843234914
