20

C 5.748061166133489 0.10743023889064587 0.19491797754894577
C 4.546786201162609 0.5639501138903281 -0.06690382761097338
C 3.378266778850325 -0.27177054786752475 0.05605040608892435
C 2.1716544325283382 0.18936737007516968 -0.20773977903502097
C 1.0348572762167334 -0.6990396104185577 -0.06588060645725528
C -0.19890841356710273 -0.2949512021511158 -0.31572011803940997
C -1.3498837069420433 -1.1528644815551103 -0.18436578034780932
C -2.3940406880502003 -0.6318994362277927 0.40306039333589355
C -3.418400914441947 0.014922117760271253 0.9123541775430449
C -4.268490152223543 0.7227755702091784 -0.042559400723978534
H 5.951347303185708 -0.8954566527393397 0.5123508351516295
H 4.428953519320132 1.5826172738866588 -0.3799541486670841
H 1.9952365874750302 1.209865754520232 -0.5275735646874953
H 1.1564901890172794 -1.7310981229853923 0.25157779849775247
H -0.2925455830923991 0.7573972025069353 -0.6361794639413519
H -1.484542079094007 -2.152009707638955 -0.49465559622194233
H -3.489082751730736 -0.06478224481556653 1.9616369434271752
H -4.843551312748663 -0.006614954946748436 -0.684990102566524
H -4.971976234979878 1.395119062667655 0.4978945106468194
H -3.7002316170195955 1.3570422569390936 -0.767943260189601
