13

C 2.383493408606814 0.5037048929773135 0.4736457719195684
C 1.4410214325471347 -0.36957104928692247 0.8055528679562487
C 0.03361130735037809 0.07531756123341532 0.824271869378762
C -0.6964777147773076 -0.24685985080236728 -0.4668323749826033
C -2.1215289081681283 0.2672549167132831 -0.29818723319982327
H 3.4291976420757484 0.23519384784131234 0.4428199969051671
H 1.7416446797127396 -1.3658785088251046 1.0473189098282054
H -0.03375222622344555 1.1683465843220915 0.9843602265407082
H -0.5541888301672595 -0.40969055959317247 1.6433012999217442
H -0.7703310136652636 -1.350759830349943 -0.6018000983282492
H -0.2498537957550993 0.23503643249569883 -1.3437622309942185
H -2.5003906611026205 -0.12689425302419405 0.6866077567214158
H -2.1024453204337776 1.3847998162987367 -0.3003598990338425
