15

C 2.1817711103699664 0.03151544726145693 0.8822267795979895
C 2.079692175226227 -0.31577992440883434 -0.37751212647164867
C 0.8967338428241255 0.04006337407802773 -1.186349733351586
C 0.03200143718706814 1.0386470874086735 -0.4937984343126747
C -0.5017886822420321 0.6189505201859048 0.7890612838252787
C -1.732428360114838 0.15245451273190905 0.7944661578609848
C -2.967527787648028 -0.29704290547280376 0.6966843971253416
H 3.0360235866211633 -0.2177507038672881 1.4905182121792193
H 2.8965961681462153 -0.8834082500369054 -0.8321298998700419
H 0.33289297629517367 -0.8624038005838444 -1.5339023196325163
H 1.2878013467091194 0.5353066116257348 -2.1181924403697274
H -0.7428661080535666 1.4154023460416814 -1.1847541231378644
H -0.04861540283532545 0.6280994459305225 1.7456419236692535
H -3.711385759379801 0.4449602360003335 0.8152519972906904
H -3.0389005431055196 -1.3353690161867247 0.5127883255972838
