14

C 3.537102842552677 -0.8435422725448447 0.5726797615674497
C 2.574812224812644 0.019307405308787495 0.29506612194484977
C 1.575610607751022 0.7732851570574303 -0.0461223331092014
C 0.5849760440432769 0.48660027080409374 -1.094581192448746
C -0.6922023741738855 0.11562474030190326 -0.4515808787085787
C -1.733650670876557 -0.16634980574049532 0.07588437910572475
C -2.993765629470308 -0.4849454038012765 0.6975734701580748
H 4.264034991617851 -0.8512446944641283 -0.20526283935700324
H 1.5171593226439455 1.6737600862337498 0.5193193502024465
H 0.9076322802331216 -0.3364251079712256 -1.775398397234873
H 0.4268917839094197 1.3721528085404264 -1.7700064378526328
H -3.1454979911591483 0.17593277755445705 1.578020432185593
H -2.9541329693395912 -1.5422995005017022 1.0778439227307262
H -3.8689704625413532 -0.3918564607756634 0.03866444285420218
