15

C -3.686092877502361 1.3379351254764564 0.09109864855578806
C -2.56554401225251 0.8206791492252908 -0.28464942392953413
C -1.5523718671970759 0.30482311081039026 -0.9367192685817014
C -1.0132544635582796 -1.0093278231278102 -0.46977861868357157
C 0.48677460041905835 -0.8320532263742483 -0.3286929217014807
C 0.7676094287076655 0.25655320452086283 0.6764253615516203
C 2.0234956503771877 0.6772806400348991 0.7068855091312565
C 3.284061967182534 0.9592650096557095 0.595724859650377
H -4.536466826805073 0.6925839149129831 0.2531237460799693
H -1.4611713937104849 -1.30772696000946 0.5133019708188638
H -1.1936072765125076 -1.8231907810352324 -1.1664994898570444
H 1.0003575040448376 -1.7668364608672316 -0.060966598401740464
H 0.8710631664813564 -0.4412859195318708 -1.294549642274856
H 3.9751051299270177 0.4322682341447333 1.2133626093044885
H 3.6000412703986333 1.6990327821645232 -0.10194013314345582
