15

C 2.0611787593840627 -1.5998248361734932 -0.03550117200844028
C 0.9332416979334972 -1.0131451364056674 0.3198215554074031
C 0.67293860901152 0.3664076837318901 -0.1913883220356125
C 0.5759387707397882 1.414991014169662 0.7811921256371768
C -0.6899305620141951 1.5841296871759758 0.594477843003314
C -0.767840366040992 0.5569322296916088 -0.4058155055061295
C -1.6199807963324555 -0.6375148918006249 -0.18310405912078945
H 2.7794987764373533 -1.118869392831047 -0.6692369288819069
H 0.2191248878538831 -1.4950639685001303 0.9517231459256618
H 1.3535765650015563 0.6583487178317942 -1.0350352646005385
H 1.2995828621966843 1.902084558555196 1.444260104989744
H -1.4180178893062871 2.3099754901359395 1.086072216285292
H -2.6045393507530115 -0.5672127163048766 -0.6874000082432993
H -1.710229443367834 -0.8353877691053402 0.9030635016485119
H -1.0845425207436807 -1.5258506701709167 -0.6164585672654433
