13

C 1.687181008939226 -1.501137631976522 0.10477444856648858
C 1.0882882985155002 -0.26008508005588704 -0.5430024473866535
C -0.2666269393087018 0.0041431297323121265 0.03608293344816821
C -0.8102162171173777 -0.7476725269047738 0.9579857723036989
C -1.0304513401822066 1.177595457757504 -0.4611041646040048
H 2.3121429763581576 -1.1452519846391616 0.9740339836032313
H 1.7599574538819756 0.6071138899006941 -0.3636385884503968
H 1.034853340023219 -0.4299575789214529 -1.6486646853520333
H -1.781504457123912 -0.5168626582498352 1.3398565402930367
H -0.31744096641786307 -1.6113282582778432 1.36434980720156
H -2.027399754450961 0.8209413522395391 -0.8328466659903975
H -1.1548865700116562 1.9155885056276611 0.3633247450247781
H -0.4938968331053961 1.686913383767775 -1.2911516786574795
