15

C -1.967619658574284 1.0245619330329068 -0.230937403565193
C -1.5687297815036176 -0.2044687713414274 -0.19704670882945732
C -2.5690624487854237 -1.334560485998726 -0.1770159483904107
C -0.1736353632191966 -0.5616293426247737 -0.17680113610022263
C 0.7739760122275837 0.3193594568995146 -0.19104897063741608
C 2.1743375969032863 -0.037741052415389865 -0.17076629256971168
C 3.1345471271987 0.8717881240374656 -0.18560012165849238
H -1.3939125997422992 1.9255441599868275 -0.2487311499700699
H -2.7133193731502683 -1.7517108490913322 -1.1866880514551552
H -3.5134014437366115 -0.9213599830391662 0.18640391691015332
H -2.1813253674314805 -2.156151785480811 0.456705443803738
H 0.5201509090747226 1.363945744935153 -0.21912095925324251
H 2.452502486009144 -1.0800062151784904 -0.14254672704190696
H 2.852351962541889 1.9138436200057074 -0.2138452023224604
H 4.173139942188026 0.6285854462724527 -0.17107951695976223
