19

C 2.503301346919854 -2.5846133966321907 -0.006543015667197551
C 2.0487277832395714 -1.3659970634331893 -0.22551525271037115
C 1.739659534280239 -0.08378278432657148 -0.1282739370986957
C 2.693223404556226 0.8726783118162038 -0.6712127090814153
C 0.5011211226835613 0.24575150625416575 0.5013947446150118
C -0.5355324218939386 -0.5588572223520383 0.39206343638046465
C -1.8512609699833462 -0.2771705706618551 1.0206943344663761
C -2.6222682541393927 0.7552485414565984 0.28718284262482585
C -3.7413218167674147 0.43307574294494017 -0.34229028970317105
H 3.0594071539207968 -2.7828996975528657 0.9155803914996014
H 3.652973327855102 0.4309617166154234 -0.9274103938818351
H 2.8971997042068804 1.7410211118202292 -0.004079732806221859
H 2.2462303451689323 1.3045622120787266 -1.6070746147107946
H 0.38342752378310185 1.1502187665455532 1.0755044748650555
H -0.45699959485766417 -1.4733868390158513 -0.17419087072822015
H -1.7990690943556868 -0.11796954898412709 2.096482776103908
H -2.250625442486661 1.7630430181592258 0.2809218965557672
H -4.34505805583476 1.1413929566385093 -0.8927305182663848
H -4.1231355962954535 -0.5932767613708662 -0.3380291005394441
