31

C -0.3477085992515764 -4.300709159338113 -0.04318159690756833
C -0.7914794558404984 -3.112597541522778 0.7229791543579931
C -0.93170005956157 -1.9299851673252775 0.1701268140455004
C -1.3871876402779446 -0.7794358431524401 1.0243497665228212
C -2.731635854446148 -0.39051586754809037 0.5450765035883338
C -2.9879870188976994 0.8413564644187469 0.1686418724582676
C -2.015710501148401 1.9251256224754778 0.17915596381129156
C -2.39538796852455 3.290863259340281 -0.26539738983315847
C -0.8037911973787214 1.6267445018164255 0.5983540734122361
C -0.3851250686007646 0.3052220653521459 1.0431905273708661
C 0.8165204632940174 -0.12046898545145036 0.2653108700105151
C 1.058232594401029 0.45484771566235305 -0.8892657795817098
C 2.2303216746397836 0.037793920591492745 -1.6452659854928349
C 3.402115264702516 0.032559581139319914 -1.1041759493447123
C 4.634210403384598 0.018424486700530842 -0.7396650225623496
C 5.738206919146987 0.0727828121447349 -0.05178025924081061
H -1.0098812982391376 -5.18702546117685 0.13218317787653133
H -1.0011443842680703 -3.24796226450358 1.7711130543393974
H -0.7330638843572618 -1.7354030902895847 -0.8881376805923618
H -1.4818225174015476 -1.2108558765529258 2.074473021584497
H -3.5341394899005882 -1.1575459137165387 0.5050181965609216
H -4.0279379191519995 1.0373393062926473 -0.17628388304388468
H -1.7413147186551687 4.074396005462909 0.18170228476794864
H -2.3697468490692977 3.3245570819944725 -1.3840258585869485
H -3.4695396623333625 3.469290083563966 0.009316823001470461
H -0.06790337051476981 2.418671018654371 0.6132874079530651
H 1.478156254136786 -0.8999268238077384 0.6601240703475532
H 0.39864895461815536 1.2186214827127249 -1.2627687062882291
H 2.083453539740702 -0.2654571359587024 -2.6704617098091967
H 6.226531345054116 1.013467146458747 0.100619819213391
H 6.147810044700292 -0.8241734244370438 0.35538642006124105
