29

C -0.2959886802283194 -2.2593261539140186 -1.3100694718778327
C 0.6615199889105253 -1.5798000355813824 -0.7457121894323623
C 0.44479144929874653 -0.4016130559003157 0.043079583204822136
C -0.8299504385021662 0.2249913849254525 0.34538122368499846
C -2.0189340641378997 -0.1587166294023164 -0.03878959950231723
C -3.2632268843082115 0.5697374934294595 0.33665938683505686
C -4.323662916628435 -0.462296104008454 0.6355562979511615
C -3.7311283615737323 1.5176583292534243 -0.7136295680082914
C 1.544932784323688 0.18782907439426794 0.5598196736579979
C 2.8534284392244564 -0.405285188068114 0.2839181565161092
C 3.8906952068424507 0.05913523179925871 1.2277882122085944
C 4.836440449537948 0.6765930063053416 0.5506437779641095
C 4.500667293058823 0.6658386727777627 -0.861249213056779
C 3.3527601921751096 0.04156542736518803 -1.0314697575018328
H -0.15988072998154373 -3.136449154252891 -1.8998577940792085
H 1.66753972982531 -1.944980480846714 -0.8953212426035313
H -0.75265450604623 1.1447671265320125 0.9860373866448662
H -2.153694125658621 -1.0218756635971216 -0.6463004691638139
H -4.1118975507767725 -1.346671203087916 -0.017129184860944217
H -5.349457387167735 -0.08636239726240773 0.48847849623935546
H -4.143246362385482 -0.8254437458332955 1.6761190932241012
H -4.257442351713619 2.381060054898046 -0.21381995562162007
H -2.897105648687541 1.985724332452804 -1.2885243567628586
H -4.446572719017183 1.0930187616323697 -1.4357244100653699
H 1.436805784854637 1.0637275288519474 1.1515828215070465
H 3.908992825846855 -0.06754639353914506 2.3133672622835455
H 5.742162928159612 1.1310191172231987 0.9872809136066533
H 5.062658050808834 1.0865991204451637 -1.6904522602111374
H 2.831447603947561 -0.13289845699213804 -1.973082283239304
