40

C 6.233903227997063 2.1231101577553924 1.6069198748154154
C 5.41232718960248 1.283735472889929 1.0132667518508311
C 4.392399404133877 1.780096931806889 0.04806047487103228
C 4.103703905651169 0.7202383213054424 -0.9041561792184645
C 3.214155725416948 -0.17223389934524633 -0.5442755433114779
C 2.3647831145784735 -0.9863555148126842 -0.0602175533192176
C 2.6355507224879737 -2.1386363109098223 0.7101121474189291
C 1.4556823530593501 -2.6746545934478827 0.9965903390531368
C 0.3786336975146508 -1.8533325826529927 0.3988665927238402
C 0.9359050673218059 -0.8368478561248913 -0.23684974213270651
C 0.09323088202891597 0.16247557381407476 -0.9384386381528905
C -1.3509989067336479 -0.08166292415581031 -0.8580783760807325
C -1.8608148388857237 -1.1021504919610936 -0.2171647861777054
C -1.0781297511048862 -2.0294450068979 0.4339692722515301
C -1.7027363450097057 -3.0732554339107803 1.083832639703859
C -3.0946574298201335 -3.1463229854457384 1.054923752780923
C -3.856629687625184 -2.19069563451739 0.38635488911597166
C -3.2255918620274686 -1.1476314622091208 -0.26266264882186496
C -3.7101999569858535 -0.13097862616059974 -0.9559330577622623
C -2.5448482474948353 0.6619073979225463 -1.4114436359588578
C -2.636483609393983 2.0099015717297943 -0.7846105648591845
C -3.676417917424808 2.4112259421966384 -0.07158597131915657
C -3.6951057262609854 3.755737118339498 0.5158301926919554
H 6.173871513910249 3.1919020514203416 1.3958838323081044
H 5.481364262043678 0.23572182825986582 1.2290976611499098
H 4.866756001882485 2.6344567392299494 -0.49935839975128277
H 3.5195062802930024 2.114840720269128 0.6302402357110749
H 4.491322549445791 0.5311528102115518 -1.8633933315337285
H 3.6158687993156797 -2.5071260000454547 1.0056436951939585
H 1.2509486449392497 -3.566031033347471 1.5697035363381049
H 0.3675966834871442 0.062074283106978656 -2.031221049435713
H 0.3789098279763091 1.2018646028636524 -0.681372686641506
H -1.117896927354117 -3.7983391739959402 1.591478460136637
H -3.5744978494836044 -3.96763594775478 1.5669006850909097
H -4.94439218525936 -2.243901101793394 0.36120535547975685
H -4.727939272057853 0.14273423819461997 -1.1915468991465956
H -1.803191342023478 2.6841326083980057 -0.9280785516800683
H -4.518329959964238 1.7453977866302886 0.07997403350894869
H -3.8387820552614347 3.750933454626857 1.620115240875581
H -4.40877598291239 4.443596968517911 0.024550032671364498
