14

C 3.1054618121894175 0.28644630762198736 0.49060600610385274
C 2.144066898752554 0.16108416122070082 -0.401271987449204
C 1.1418218629100048 0.17049673180108635 -1.2435717610022614
C -0.2075835319631559 -0.06253837675312128 -0.6919841503908617
C -0.2233307332308443 -1.4115579029201224 0.01690641640816216
C -0.6521374062565941 1.0014128000959697 0.21972817562658012
C -1.9433710750159865 1.2425888002631869 0.44899797648922884
H 3.11369767963184 1.2174277994993141 1.0799632554684697
H -0.9033704044034617 -0.08164221588358438 -1.581945530068636
H 0.7902337289478678 -1.8759200283575344 -0.006474560959351365
H -0.9365966269703283 -2.0647616742135466 -0.5090113852811506
H -0.4633584412216273 -1.2686001472473505 1.089467996421963
H -2.731960076651381 0.6507307071205213 -0.0385115817588865
H -2.2335736867181892 2.034833037752561 1.127101130392037
