10

C -0.26086771979616324 1.6902735338805064 -0.291255451411607
C -0.16093935023315295 0.40519112104586696 -0.013208274616197162
C -1.2461603303586846 -0.22646569208674847 0.7684165736850955
C 0.9861311421185581 -0.3114905041423549 -0.47866105421656135
C 1.9679009818518909 -0.935896956048334 -0.8632605571177397
H 0.491299909614357 2.206470351458873 -0.8534330506270533
H -0.9699071616913587 -0.33767424228724674 1.849936448757237
H -2.22072112846145 0.27207465165010847 0.6414904969962009
H -1.4089073627182638 -1.2864970984230564 0.41940061805676365
H 2.822171019654761 -1.4759851650746418 -1.1794257495169438
