36

C 7.589482571715263 2.012003986046325 -1.3224721209484454
C 6.419895279970715 1.4391632302126571 -1.1063273261022675
C 5.398839088081075 0.7218550117658744 -0.7451109680640756
C 4.697333168821413 0.9823166345515639 0.47046303000981615
C 3.383366899229944 0.9133821981734103 0.4120521332500996
C 2.116313374032486 0.791149666283036 0.2914246940424387
C 1.073125461793706 1.68690020387892 -0.04294815727975054
C 0.18120919735664637 0.6924871250183139 0.08437623267507163
C -1.2588040345846823 0.4218410698817151 -0.023401361373623388
C -1.9741457939388045 -0.6573046518084236 0.14480684114973488
C -3.404299678268341 -0.551912684894968 -0.050060074010166655
C -3.97759580691453 0.7142960117163152 -0.4156931090720967
C -5.4161732959141435 0.9779621790411486 -0.648659076124531
C -3.1947122397776355 1.7255017423264536 -0.560201183043669
C -2.4789828277767754 2.8174996450077234 -0.7316856935779522
C -1.4494025653854123 -1.987543221389872 0.5195026182554113
C -0.20507700064818582 -2.363890504841884 0.7558783521605241
C 0.028977379851436034 -3.790729759744923 1.1186691481718476
C 1.0121994339434999 -1.5697515516491491 0.714269386480386
C 1.1916305715377313 -0.2914278977566559 0.4355432596843105
H 8.440945585520623 1.5943362212071823 -0.7690302972312497
H 5.093800186456813 -0.0807170239687255 -1.388843436578535
H 5.071656711555997 1.2275306115118996 1.4331866670763862
H 0.928712726368218 2.7173522664673233 -0.30201796240478607
H -3.931075174557814 -0.8886963065167598 0.8989273467025078
H -3.718980672880896 -1.3412762710457675 -0.7893933069939256
H -5.974987467257621 0.10401897123391778 -0.25312439023236555
H -5.583960989218702 0.9504525521856785 -1.7610249685011545
H -5.725559064817198 1.9284245616257838 -0.2005805441616947
H -2.359560646985292 3.3829478214984126 0.14602684024289583
H -2.1390685185239593 2.945516762537082 -1.71793625473867
H -2.1958079046763976 -2.7525292232456398 0.6102954188297127
H -0.8866008834230469 -4.284456935168484 1.4903011049315191
H 0.4766602331356878 -4.314450053273306 0.24276308273062763
H 0.8147070688728578 -3.7872888052910767 1.9067134560725623
H 1.9559396273040062 -2.0849635815756797 0.947479058406469
