27

C 3.5176143141188705 1.9213301373583511 0.7775232385593686
C 2.3210989109982925 1.7907795586899333 0.30240995375226176
C 1.8628551300366465 0.5063259203150273 -0.28319541980753205
C 2.689469945531296 -0.6624824401121909 -0.36625458762641927
C 3.924335421890824 -0.817762822656832 0.0368635862301682
C 0.6265910563595054 0.5119871896843278 -0.7348123208736
C -0.051645214211716695 -0.6222735010867125 -1.3516104153620434
C -1.3022279377632104 -0.9291971025533027 -0.5065702060827344
C -2.1798783156227604 0.2832641515631291 -0.5047420440711332
C -3.4185542247830223 0.029666133818756782 0.31129924143447474
C -2.975979387182716 -0.2919296922966329 1.7195679745783612
H 3.8321345836190397 2.861386368196121 1.1985702087686407
H 1.643912678061239 2.628119314649464 0.33152360380529583
H 2.235392323255303 -1.5565356009412787 -0.8324688158175756
H 4.389815811354372 -1.805746242904478 -0.11923045775377505
H 4.548207823560714 -0.10039246513754226 0.5044952145144151
H 0.04750613157241749 1.4413489642983124 -0.6455494420181778
H 0.4884205522766762 -1.5708832157506936 -1.3838408909169544
H -0.3797543403921082 -0.30706416588181096 -2.3814625816046653
H -1.8187990000184062 -1.7992988792898204 -0.9418024015090914
H -0.9396947753034767 -1.1381818246734967 0.5023914064974779
H -2.380511513450131 0.6460088250281814 -1.5121251306611545
H -3.939958970368242 -0.8659678431091372 -0.09129726840146508
H -4.09751994458868 0.9019654657964489 0.2589693927725819
H -2.039807425383515 0.2600248967311828 1.9109169115597038
H -3.7735411266232974 0.06253517169738666 2.4000996613276686
H -2.8294825069280884 -1.3770263014441837 1.8851684487884117
