20

C 4.406719223513372 0.5314593408699967 0.1668966336338
C 3.25645044419521 0.01913426128691817 0.5170615037303731
C 1.977642816873599 -0.23466134533854943 0.7531690421063183
C 1.2558825435913339 -0.9721619228417291 -0.28900214509591227
C -0.20326580672381916 -0.9478210692602944 -0.13120241838624128
C -1.0546650367345822 -1.6965975332092227 -0.8076348112120154
C -2.435274669689769 -1.3932868828052234 -0.3759895363049089
C -2.407931390395991 -0.4648554821977162 0.5567282140601221
C -1.0080862967248938 -0.11577400715613544 0.780512987003052
C -0.7041096897093047 1.3162594309504052 0.7197827325708925
C -0.9914393573866496 2.112424783546969 -0.28497012941326566
H 4.433374626537343 1.4389573983101849 -0.4410705834491505
H 1.5971513107332014 0.12090101927065601 1.6750602580801552
H 1.6823168790361716 -1.994712981625275 -0.3401573184874911
H -0.8120135902858857 -2.430306994926153 -1.5688146226165607
H -3.3090859499066174 -1.8896231626530569 -0.7961329470753422
H -3.258711079174614 -0.05192602072641385 1.0503873701946602
H -0.19124001205563973 1.7494284863349676 1.597025215161525
H -0.7396541534688329 3.1652528586256916 -0.26936373348223625
H -1.4940608122236885 1.7379098235439474 -1.1695242164792847
