49

C 8.460900105911618 -0.572799712047616 -1.7517298524231473
C 7.1894949048323875 -0.9320117379080212 -1.7310309504886139
C 6.098442390474777 0.01783604403241173 -1.8637697713995718
C 4.834497417878491 -0.31598605474070496 -1.8465263944205332
C 3.8007837294766103 0.7373499672843745 -1.9905705571696437
C 4.43725879223711 1.923139558005166 -2.6786871473679534
C 3.2857693925159377 1.1976363187527224 -0.6753752407867716
C 2.5519412643270685 0.3684433595710312 0.07410551704374763
C 2.0114940858339647 0.7808428458421274 1.4007125835857563
C 2.5771975754239356 -0.11998721013737759 2.411217575445348
C 1.6754572059482362 -0.9026710893673509 2.9563328902153128
C 0.41893656082096326 -0.5697136711604011 2.332674377480066
C 0.5690298498472707 0.42974903172214585 1.3973752349134787
C -0.5199410924888348 0.8991371194367789 0.6807646663943123
C -1.7772710642706468 0.37159716390716774 0.8925662793565875
C -1.878275817738137 -0.6181940637350851 1.830218821356896
C -3.1712800021667595 -1.0297141153489553 1.9204973991469334
C -3.430441883994354 -2.036531873445795 2.83660227650245
C -2.396885492590688 -2.569745903678699 3.6020604663192093
C -1.0861209073116462 -2.1099596092706827 3.469102921286034
C -0.8506239459200321 -1.1172649182627539 2.5610194552364147
C -3.928623555496494 -0.23093654051185128 0.9627937647225557
C -3.1293108194040413 0.6085381684730993 0.3386677896463273
C -3.3498680960089087 1.6104328163394315 -0.6802817843105576
C -4.408186213829153 1.9861036513270551 -1.2858513171788803
C -5.802361255254705 1.5845513054530123 -1.2146530990971431
C -6.224721632008526 1.054616121507565 -2.593387012559912
H 8.785187293727667 0.44837003911429585 -1.8682167720546334
H 6.943443521026463 -1.9757131452897714 -1.6097277963999572
H 4.483827120766748 -1.3400567249934912 -1.730756760338411
H 2.9767884418595094 0.3279091507701261 -2.631509301501369
H 5.284676002308739 1.5488601960347297 -3.30937002591274
H 4.888941757885993 2.5567839881460905 -1.8677092581451475
H 3.693397090097672 2.490560146509548 -3.265976735232438
H 2.3115778356845103 -0.6480351456989872 -0.24397767762931039
H 3.6425148752421768 -0.13298277577003145 2.678410371570691
H 1.8102166479813322 -1.6695144878264525 3.7337277758807748
H -0.3972216954453146 1.6671860530509683 -0.036158428263261315
H -4.451280057707759 -2.3729389331868274 2.9190891672011907
H -2.5896712269547892 -3.3487649778245534 4.312790903238938
H -0.2705775788232417 -2.4925776922402574 4.036183651126626
H -4.970569761298667 -0.3577924407397227 0.8307967996169111
H -2.423190001650004 2.178536140866719 -1.0177722277873256
H -4.254187882020729 2.8150424539610968 -2.054475333690366
H -6.4232427145027575 2.537064321101371 -1.0169703786593038
H -6.100526418342988 0.9173562093469029 -0.4206517086820299
H -6.691711674585698 1.8698144124717984 -3.172947509303615
H -5.31166470319522 0.7133993479885665 -3.1280829758490682
H -6.894018369097749 0.18572592192726872 -2.491544670636475
