11

C 2.8771538117309206 -0.5158688907030233 0.358888388310113
C 1.5751445415933771 -0.5623231668156389 0.47229878020094157
C 0.7872491707743379 0.6613482799534878 0.7647032545914871
C -0.5394729013942002 0.5282806256422876 0.12331729444611404
C -1.608358160964233 1.09270379164012 -0.5744815380818104
C -1.6839383121178066 -0.33328154511867547 -0.22864427838475634
H 3.3888013894768125 0.42386575917176167 0.4790472807362737
H 1.064031949322266 -1.507034882929337 0.3512071160210548
H -1.9962817797324848 2.0101315733310683 -1.0198294641432832
H -1.487633743561732 -1.1093405821544131 -1.0142159561759394
H -2.3766959651272184 -0.6884809620175737 0.557110141238548
