26

C 3.3768450257168734 0.3809849070929949 1.4419355693685032
C 3.5066534659794613 0.2569937486287596 0.13388791954843796
C 4.8490825058849625 0.4452041265849015 -0.48777816281841635
C 2.3369884620661114 -0.059231689012838616 -0.6606699224210789
C 1.1672885377128115 -0.2182200937877102 -0.07523202393630199
C -0.03184443432503121 -0.5409033219024892 -0.8765807212909248
C -1.2649363817719124 -0.4202669177226647 -0.08309164592372348
C -2.0168434544710867 0.5715710071146924 -0.45872186041341795
C -2.7457872582565717 1.6513787851428912 -0.7041040840741941
C -2.3906100196173052 2.842220056249827 0.04622650162973056
C -1.728056290015381 -1.206227410661824 0.9974424412129655
C -2.2467083057000545 -2.371069754987852 0.7223800623979341
C -2.7424468272904483 -3.5268775346578156 0.35453167489459
H 4.208226257794346 0.6117667806701897 2.059412081358013
H 5.010646883123991 1.4758999048757564 -0.8416456952542511
H 4.943478695553802 -0.24303636964896663 -1.337983958274435
H 2.4600717111945665 -0.15885466796798856 -1.743332343398708
H 1.1103702404443914 -0.10771889737790985 0.9909882113243826
H 0.051429272982813475 -1.486177247165916 -1.4332963282291789
H -3.4857560125516818 1.464577598775324 -1.4246906514686455
H -3.1281286310497585 3.6664017194076957 -0.03952907726320726
H -1.3585892197182712 3.205229335371958 -0.22261663557791184
H -2.3390747443171795 2.5778021676004 1.1343525839590878
H -1.7154568908823147 -0.9775364445901775 2.049685780307806
H -3.784174620712914 -3.5136424922111997 0.15047765827085116
H -2.042667967774295 -4.3202672958200115 0.3079526260719642
