12

C -2.329566069651223 0.9917234098963792 0.6037033572947791
C -2.651165788978518 -0.25185153681077194 0.31968576107160296
C -1.7777964281427592 -1.1686451021199846 -0.4079073263404211
C -0.5026367207136369 -1.0383931204799317 -0.1603517240094599
C 0.728634026818175 -0.7289371426493915 0.20292826410307632
C 1.4028479525773976 0.30038138086859867 -0.5143475289918448
C 2.639478335141848 0.6827942820785424 -0.37291272394958463
H -1.3918566735262587 1.4229772812618429 0.31664661815673634
H -3.6024319361447805 -0.6753052449148236 0.6157791675675317
H 1.1677193789693703 -1.2570575624898472 1.0176098728657326
H 2.995886375537253 1.4930070995986615 -1.0095938427038367
H 3.3208875481131743 0.22930625576074654 0.3478183561294479
