14

C -0.9531456162087196 2.1706176478693124 0.2983565637029403
C -0.9838807765436443 0.8397786155385255 0.3379378837454295
C 0.1048487492110347 -0.003890948994966445 0.07759032202547218
C 1.2023150387673824 0.6446734167879078 -0.22008707405255257
C 2.274392900204914 1.034067116500345 -0.8417106076493049
C 0.02951467702519345 -1.4360415878949604 0.12997743350857435
C -1.0881207972883904 -2.0395988424714138 0.4320910283863798
H -1.8232275366158253 2.7421596393676464 0.5088626382499211
H -1.942616417808683 0.41552715284025343 0.596222905537911
H 3.0438183390509326 1.248903767220344 -0.16896921348779032
H 2.404674843719184 1.135944995426498 -1.880304081054834
H 0.8909065702712193 -2.082872702412713 -0.07727366868881053
H -1.1553513547184928 -3.134479805682954 0.4746457185155427
H -2.0041286190661363 -1.5347884640937908 0.6567011390917851
