29

C -6.043084441581837 -0.6391874650476151 0.42188377926193066
C -4.735042675413596 -0.7527208177749489 0.5327128113379267
C -3.8501369069139666 0.39801471898452634 0.2440591664107755
C -2.698650071192905 0.38475034996069407 1.135127516874709
C -1.6443255884550503 -0.3020881375200676 0.7534765806010171
C -0.6279202025750162 -0.9213055216260689 0.19206240813963424
C 0.22100539820364293 -0.15718648343685745 -0.6259511882580818
C -0.2951066265757766 0.6154535225673717 -1.5203468024388693
C -0.8755542431058887 1.3777135284743447 -2.4233841521026807
C 1.6884898428704427 -0.13080167841548326 -0.5838698175717485
C 2.37686996383854 0.6060154312395621 -1.3790011641947495
C 3.7734224614052376 0.7830095108159552 -1.5097972326828488
C 4.744063578145172 0.2250534545123452 -0.8347394676787528
C 2.2421902607709394 -1.0153036478913728 0.43812084232113924
C 2.182903302967776 -0.573271909604908 1.6538786872180165
C 2.090200763024855 -0.06673801364613 2.873690964217179
H -6.559694579310142 0.2501632924636083 0.1279481501424526
H -4.284626414163376 -1.686810819029746 0.8359967890046759
H -3.573519789545535 0.34190758232886026 -0.8253352197034542
H -2.564743156785934 0.8522204613165919 2.0681450665322325
H -0.6036973014467488 -1.9588718505881426 0.4556670490500962
H -1.0298750069437856 0.9026797133024517 -3.3511427170238637
H -1.095786609204831 2.3463834120448577 -2.078039206584334
H 4.07278331667075 1.5133932513657573 -2.3166948090740975
H 4.5094537099728615 -0.4790927962906362 -0.05417523927115193
H 5.7792991472551485 0.48654738323402213 -1.0782486051081823
H 2.681280476769842 -1.9697203001655033 0.3040046234904369
H 1.196439756763256 -0.31528337220452907 3.379655925357006
H 2.923361634555305 0.5132728427782636 3.1642952617336135
