31

C -4.014532319119432 2.552367833203559 1.3894640366096827
C -2.6936094672392006 2.406426470470727 1.2532803340268546
C -2.024334894453763 1.5040076999042467 2.1368597891925245
C -1.5808236690506712 0.3918176517821396 1.5927359588871108
C -1.0917431197593994 -0.6420183048951043 0.9389201763375332
C 0.22591999425859752 -0.4670267689046087 0.3940220427442801
C 1.3338158319818416 -0.5831576996550484 1.3922740675843617
C 2.572136455185724 -0.4396499353482777 0.9953543028398216
C 3.6164091603572546 -0.5637059007964699 2.016990853654978
C 4.885199181865911 -0.42624844525919814 1.6639265892484552
C 5.959764815403549 -0.5470036532997837 2.6768820044811497
C 0.5033632815038546 -0.23181928627874934 -0.8163065362383146
C -0.28940920844479323 -0.07023246760893645 -1.9622010479113883
C -1.5918489564316651 -0.13616178026469342 -2.012866681166001
C -2.3566220069703747 0.04242414507387269 -3.2438568519063025
C -3.144613218950515 -0.9395036134595194 -3.559908745411485
C -3.926659778195238 -1.9737991180661387 -3.823525040835699
H -4.613932537426196 3.1919540408474574 0.7920352423700247
H -2.2011635373224117 2.9701530592502703 0.4918172720241879
H -1.8164873283152658 1.5707265016376475 3.167624430548414
H -1.7419295439050986 -1.4689891914214395 0.9058117889806792
H 2.843956741017452 -0.2361107568921082 -0.04436472332408939
H 5.183344594234905 -0.22424851390356265 0.6423187624300777
H 6.896779036632095 -0.9121403911966779 2.191822784167933
H 5.624637336071725 -1.2617481001654858 3.475519159142857
H 6.140850559368308 0.44842617201601837 3.1485161964835364
H 0.19107786546832148 0.1357271278797338 -2.9475691037575453
H -2.1765363994479174 -0.32829055487065156 -1.1361152246694954
H -2.3474429366227128 0.8624869907383038 -3.9007775440713295
H -4.895081888574347 -1.9018988257905767 -3.406415002518263
H -3.470484043183123 -2.7227643846839116 -4.412269289953164
