30

C -5.508574146419772 2.2226019979552603 0.3842220594383101
C -5.276998126080329 1.0392899151609072 -0.16150870227685307
C -5.078848832667408 -0.22324890892580995 -0.4319132387931768
C -4.19697275857277 -1.071164617129196 0.3493649156669332
C -2.8578090256679975 -0.992155578790821 0.23571767563209678
C -2.242792152310665 -0.06300824249113456 -0.6658669126345587
C -1.0141285592214078 0.15644855704545596 -0.9098593505910009
C 0.19721723693401413 -0.422560156018436 -0.3936609528692148
C 0.23003536054496124 -1.4879948394504126 0.6198773360306137
C 1.3648565534096575 0.04876251790949499 -0.8759214178995934
C 2.604699911560676 -0.4845168368734283 -0.40406298020463366
C 3.0155951277028934 -1.8465152486831704 -0.8765308161104202
C 3.3586933242566883 0.19432660392099055 0.4151079097334453
C 4.2720129907850435 0.9790338240577249 0.8707868607363461
C 5.212065985744081 1.8156448632489535 1.186719182338416
C 6.143372402889282 2.6822021627208366 1.4304093985989779
H -6.291893844403625 2.237028049704795 1.1317832697179389
H -5.613520190598165 -0.6152334744945871 -1.2791473966571716
H -4.657281726564138 -1.7695289282161983 1.0269555626014781
H -2.317127569738654 -1.659676321352725 0.8549857695603085
H -2.956430510844181 0.5915815020112507 -1.2681777367531555
H -0.8357747551828685 0.9761485287283597 -1.6948330771336706
H -0.2578899517995567 -2.408463526853089 0.2946932002233915
H 1.3133607502190483 -1.695431869461673 0.9052257769272256
H -0.2277205148371891 -1.1271937908241154 1.5471046696232362
H 1.3246494131554247 0.8203279536007192 -1.609151674458485
H 3.49155448554343 -1.7526843457767678 -1.870293699171732
H 3.756770182173203 -2.2419016426140557 -0.15055194153015025
H 7.113866215306671 2.573224392016952 1.0030488398698403
H 5.935012724683357 3.5246574598737994 2.0735709012490333
