49

C 8.668933727736636 -0.439190864482211 0.3090503237039951
C 7.389394888629683 -0.27030255250627244 -0.04012573971262117
C 6.404214720983901 -0.21992779068861126 1.0172434557754904
C 5.138378161647301 -0.05711925239903507 0.7425640896439091
C 4.632747246311089 0.08480262282700565 -0.6473634489566182
C 4.8760917498543295 -1.2125495958738803 -1.4217315414594902
C 3.3385462796633347 0.6328950897457046 -0.7806131378712879
C 2.112445286913614 0.49371492504177245 -0.5623584598118662
C 1.4127339597474078 -0.6082731142173806 0.09719382320306275
C 1.9728738758568019 -1.6951251286191242 0.5994567566651917
C 0.9550147506464204 -2.5867091511205866 1.186493560421353
C -0.309521006345384 -1.827045774564313 0.9416507691821171
C -0.04926104153015542 -0.6912317518213006 0.3154699419360671
C -1.0636580677899647 0.3153066063397687 -0.10360304766581453
C -2.435205380517098 -0.01151467054173265 0.27340576894772756
C -2.653947144660593 -1.1400282362954957 0.8906407862947652
C -4.076100221472092 -1.261386270833473 1.1648631043493123
C -4.436574862325181 -2.432991634796495 1.8074533314971941
C -3.5256535500150834 -3.392889937050901 2.171730057064028
C -2.0945988879480395 -3.243172203178217 1.9022629749910782
C -1.6878874029274624 -2.1379969456106434 1.2839455034242462
C -4.668611749808178 -0.12067289675315529 0.6658616250299765
C -3.725461454872232 0.6933178019126999 0.10440938900201739
C -4.00893500254882 1.954049760639833 -0.5003969499206744
C -3.136205053031839 2.7608766466621306 -1.0425011631150316
C -3.49333947547095 4.042423546794355 -1.6482038652756528
C -4.978578359461442 4.3308284615424135 -1.5785759166480078
H 9.41621816378018 -0.47876114367160744 -0.4703060089880277
H 7.106289955469473 -0.17585230311063474 -1.0679042170876074
H 4.432569450852328 -0.024684482452078636 1.5606329200877025
H 5.360730100160189 0.8130767249928875 -1.1689244929575586
H 3.9049655485745336 -1.717035757747294 -1.6282388487050798
H 5.323960224578298 -1.0309943026475379 -2.4176753767934693
H 5.4966708666428215 -1.9300861233558126 -0.8734882373747963
H 1.4579901680229632 1.3362746416437372 -0.9254231099185364
H 3.0361501486911533 -1.9321209063894196 0.5975969549107045
H 0.9528441164655849 -3.547196128969411 0.6332973989109031
H -0.9917978543360336 0.4510051163325884 -1.2364688437106708
H -5.49863548427476 -2.645127177180017 2.057839487608445
H -3.944262551312749 -4.246053602362749 2.6615436401543944
H -1.3626819070624159 -3.979702672161955 2.179076712628627
H -5.723571964932896 0.16908084239721932 0.6750911345203391
H -5.053733254501138 2.330487935663562 -0.5398724705581616
H -2.0995294396909294 2.481681673761615 -1.0433997514902684
H -3.231625146012731 4.001355261187073 -2.7262935383584437
H -2.982171207266278 4.913273927564952 -1.1722277091998512
H -5.222794025631866 5.32267970596651 -2.0088938596567933
H -5.580354062107686 3.5809631735154737 -2.131507497358711
H -5.355067833372601 4.347647906879639 -0.5357694176605378
