35

C -2.8613455351178594 2.9182607592988834 -0.29244664514441077
C -1.5920106820330495 3.1497281256275946 -0.0026556563100471756
C -0.532666561036951 2.6844218952675516 -0.9277786483016491
C 0.5783065792643497 3.717296458101788 -1.0001074399109453
C -0.020822566279081755 1.3558829100207845 -0.5132638651337256
C 1.2593088271236133 1.108775318860139 -0.23972226902498006
C 1.713077241623979 -0.2521902870943512 0.17224294060303216
C 3.1236278272930544 -0.4013801481294266 -0.19559517545516947
C 3.6604352881357287 -1.5815947021596948 -0.14554326236469511
C 4.2701619886055955 -2.724975935429471 -0.12237789004829853
C 4.967977987054823 -3.8296345736007646 -0.08002116609015682
C 0.8946713059477338 -1.2973926909056797 -0.5141540641797121
C -0.37196534367992923 -1.0480326210687108 -0.7714542579814266
C -0.9630782257719096 0.24182356804108618 -0.3845426059092786
C -1.5665087693026045 0.10769167185254193 0.9432932260979453
C -2.6867435230873067 -0.5487997196624694 0.9962773923740116
C -3.7598177491760203 -1.321290652606603 0.9774232140231397
C -3.5223302977761803 -2.7509203681395213 1.127104678956888
H -3.191661018086703 2.4036850182398 -1.1728642880142617
H -1.3548023178824895 3.6764443204941863 0.9082128116863565
H -0.9140591875601493 2.5826667957276053 -1.977838215298357
H 1.2892686634157224 3.363215089674089 -1.7753544500516258
H 1.0574422237573162 3.877742946930523 -0.017657751604361387
H 0.11845982664098188 4.6424681834088 -1.4046939554645221
H 1.976879195878617 1.8862924514240311 -0.3126845064479222
H 3.7489175138141233 0.4360663335951379 -0.5114852185957919
H 5.210234180715983 -4.356396282480725 -0.9987822818067927
H 5.305565422500149 -4.223001397954203 0.8603499650965584
H 1.3990520270027487 -2.216928756328308 -0.7653639920730296
H -0.994302373810091 -1.7818021023245307 -1.2677750221897828
H -1.2217715268947895 0.4691537764350004 1.8827481449977943
H -4.655929109240642 -0.7797629907208042 0.8524905023132031
H -2.7801599399773926 -2.9455951786417884 1.9389005721495043
H -3.1323458343005273 -3.23832343359726 0.1953157769644507
H -4.45106553776905 -3.3235937821595503 1.3802819544969627
