30

C 3.4137711672522095 2.884731596655804 -1.8003565593678579
C 2.3158018933498976 2.1309412538398926 -1.7120891323444234
C 1.3948430551482136 2.27001558146035 -0.5702660192761422
C 0.527145038491379 1.0460476442097626 -0.45669128255894315
C 1.178985048959765 -0.2212563814536432 -0.2293121186016052
C 2.490610568200045 -0.3422286617808807 -0.11396369610854108
C 3.07623678816903 -1.643672115811451 0.11239506172988778
C 2.5096885898887784 -2.3735980895096542 1.0382801891356723
C 1.8979038159743753 -3.0364100304856065 1.9791299468577253
C -0.7593101989217791 1.1820053612079537 -0.5653104562749047
C -1.7198147187566182 0.10198816853293315 -0.47861835108004175
C -3.0218262589710534 0.3264649029030671 -0.6008698452270165
C -3.9522987376779617 -0.8216778465898671 -0.5024241613859467
C -4.894977643603196 -0.5539704207667407 0.6733414227828726
H 3.6790419338025924 3.6207981275899104 -1.054829914863186
H 2.1386296584010345 1.4304401646015725 -2.4991347369987538
H 2.0003287577385254 2.2834402831379497 0.3597289853169438
H 0.7617002880734938 3.1677821174631235 -0.6501437308154585
H 0.5574775076728902 -1.118030554441065 -0.14966044903286474
H 3.1570597887328917 0.4834436984288507 -0.17394025408262573
H 3.9000825714978675 -2.0955997326193674 -0.362886229195177
H 1.0849694494835531 -3.652765583638586 1.6375771668582189
H 2.266502549588636 -2.892845321291973 2.960567992779146
H -1.1747815379201054 2.187796581928998 -0.7369771082524882
H -1.3849790129034762 -0.9026481326470308 -0.3127168832799639
H -3.38338527983648 1.3385503535217316 -0.7696974101288625
H -4.558591719800735 -0.9376143264226402 -1.4447302366827828
H -3.4109571699011783 -1.7529768394552263 -0.33798692041205286
H -5.7342290250203956 -1.2756558059522005 0.5499067389029537
H -4.355627167112009 -0.8334959926204925 1.590217816817452
