16

C 0.08941811870429797 -2.137866771001087 -0.07708955753090237
C -0.179882554163751 -0.7358314768615074 -0.4630224495846105
C -1.4305169716185422 -0.3728606220252022 -1.0293952853225536
C -2.268919268369398 0.2824525904149765 -0.27987271109871326
C -3.0413779483644676 0.9429675458367157 0.5515042599061929
C 0.7601768199831614 0.15588877687171201 -0.2696071695239593
C 2.0473820024064446 -0.18150378663449138 0.30598548425764577
C 2.9493820017951804 0.7553289751766548 0.4753809871062356
H -0.027886877180351582 -2.7452423398307455 -1.0198269066571182
H -1.8004877444337357 -0.5660893485540017 -2.020867934516588
H -3.6818034669065463 0.33094271467866104 1.1374560787586603
H -2.92709324406426 1.9898345321644886 0.5316640977658476
H 0.569099238369709 1.1770454198808378 -0.5486447191303621
H 2.274429068353879 -1.1924500962428328 0.5972139422398576
H 3.9181882663292114 0.5353423348529829 0.9018155449339151
H 2.749892559159131 1.762041551272831 0.19594225185478226
