16

C 3.0112333205458106 -1.701086002057505 -0.36270670386951787
C 1.893381456415956 -1.221526447515963 0.19443404547880627
C 1.0299384884238378 -0.4141006325872805 -0.5905357785252544
C -0.11162970846173911 0.1358047207713443 -0.1888779450807787
C -0.8358400742702218 0.9337175300335314 -1.1829078160442816
C -1.9526362771757046 1.5115263119517082 -0.9007032228661922
C -0.5656151443079538 -0.07212479292673943 1.157338211018307
C -1.6503106122182472 0.3947959987424828 1.6935688348319384
H 3.24502441089211 -1.4798238660344802 -1.3734535726080952
H 1.7139117424525174 -1.487860745385846 1.2386684798495462
H 1.3093546858736365 -0.2075239305964879 -1.6376353865512912
H -0.4344449058329158 1.0557380906033675 -2.2012820347398256
H -2.476777575623595 2.095238978659518 -1.6374398134450088
H 0.09023701895766334 -0.6969419295470858 1.785553943609437
H -1.875319364619072 0.14907646254644266 2.757547097222219
H -2.3905074610517154 1.0050902533475732 1.2484316617171445
