17

C -2.0876946831810064 -0.6736002926522868 0.8303159124817234
C -1.9800712373559792 0.15114072513564886 -0.43481275888136794
C -1.029355814619081 0.42483807845972965 0.6455805575113618
C 0.37112730608007305 -0.12283089611410337 0.6461438201417715
C 0.6365088943746011 -1.0898823049731488 -0.4021386331748951
C 1.668573233305805 -0.6944385331311889 -1.120502733263859
C 2.136701036121055 0.5667964308641993 -0.5721523903961828
C 1.3937259912535978 0.9166846044978985 0.45775065803347625
H -2.9074902324470897 -0.4849670786952208 1.5338752501383175
H -2.8143787521505303 0.8926343197272759 -0.5498832292585304
H -1.6497415302006597 -0.3575353429955324 -1.3715121767819973
H -1.1401399614479057 1.3320522530876289 1.2755108440581115
H 0.6021128991175458 -0.5845487680886448 1.6490972932808226
H 0.12776489977140473 -2.029479483177389 -0.6497228439946476
H 2.1150140924086878 -1.214246585379842 -1.9894906035795124
H 2.9897439273900983 1.1363439399161337 -0.9698082502229225
H 1.56759993157935 1.8310389335188682 1.0217492839083218
