11

C 2.7926153626368038 0.44514201262742914 0.335542764289025
C 1.8930781005059965 -0.43064320747366047 -0.02311888013419362
C 0.8131663763625353 -1.0375386324098503 -0.46411662951217314
C -0.5201537337405507 -0.8134192011115995 0.17734239258546636
C -1.3857210271333804 0.05702976561728993 -0.639675390271768
C -1.801992340418925 1.2242259524405248 -0.1858633687681522
H 2.723932240532519 1.4969044571988426 0.10662161250234503
H -0.365566093193942 -0.393012656467118 1.1895599483542354
H -0.9589761887415826 -1.8370833281548058 0.3266523398275628
H -1.7028143231567476 -0.234591680145071 -1.6294526054311997
H -1.487568373652774 1.52298651787803 0.8065078165588242
