29

C -1.3792283323204102 -2.7314776679839334 1.485489048472317
C -1.687274298710204 -1.5536911292881408 1.0446518219971437
C -0.9195835977994761 -0.7582996427310679 0.16403687967449876
C 0.22053481782085105 -1.2864735910219736 -0.23345585313334674
C 1.396592442832729 -1.779767936871536 -0.5345600942832532
C 2.4515495906945213 -1.4260720524908435 0.3672380209987642
C 2.3320717833108837 -1.4338618043604745 1.6809188019748067
C 3.3931451908587764 -1.078030353636083 2.591508313527176
C 4.5870332316381495 -0.710325269801531 2.1822220026031576
C -1.1883424884599114 0.5307667971159785 -0.35934874079480333
C -0.40281717574059334 1.201210555746128 -1.1842860217597118
C -0.7279657409298631 2.519934134798344 -1.6897361566807818
C 0.09286736436804906 3.1334993511200033 -2.5055836830949874
C -2.429946587517988 1.1814743016690257 0.037059960296772575
C -3.4574812875397516 0.9492517138006448 -0.717828558708014
C -4.4540252726625535 0.6691500835900602 -1.5253304056311607
H -0.5060843509140273 -3.305082778906415 1.2681747209649334
H -2.647496573782482 -1.1400515926805672 1.3988258691650173
H 1.383744722567641 -2.366774309996705 -1.403236206788313
H 3.4050770252236644 -1.1354455326735553 -0.09311505258863967
H 3.177626226486955 -1.121979045765343 3.6502622809477225
H 4.897413685905138 -0.635682636472458 1.1562000436700874
H 5.358955697059211 -0.44965031722360604 2.923597326637366
H -1.6452473119174587 2.9991451433915204 -1.3960506171285447
H -0.08132610437682969 4.1152604499523555 -2.9224261646485075
H 1.010034114513161 2.6465798743224505 -2.79508821278684
H -2.5985926056176702 1.8170485250963415 0.8597666778854397
H -5.016031926093245 -0.1857485354387411 -1.2577558015354169
H -4.565202238897041 1.3350932667431268 -2.3401361066620328
