24

C -5.2026869273945175 -0.9403853788254581 0.3105450790400465
C -4.810201812899057 0.07308236687812275 -0.44387835804615056
C -3.8371858941332126 1.0094879000331531 0.00023590541334938284
C -2.820433505732608 0.5155453736552763 0.6743198121964505
C -1.816543349728521 -0.07681443706760992 1.2538046626447559
C -0.752432791658147 -0.5089181337829766 0.4145695490980713
C -0.058830853380004655 0.2532077109605483 -0.4097132192411265
C 1.015356593187957 -0.40636295804482203 -1.1975628060260242
C 2.323777737690601 -0.27081310670984415 -0.5110243361637983
C 2.5022297062468817 0.34999771013539577 0.6386526671055992
C 3.9404316431391933 0.27502651639304565 1.0006113896365016
C 4.548038306339489 -0.4799039775152202 -0.11454573146297342
C 3.602109693093294 -0.7789372317504272 -0.9633536046463935
H -4.829850368614628 -1.1343465585825203 1.2924310624226136
H -5.251494230338735 0.17881575439701242 -1.4241846009670893
H -3.7817492419611236 2.056060649904405 -0.11746739716893019
H -1.9085629623991003 -0.17350341642027584 2.308999692421648
H -0.28698874369657007 1.2967829718419919 -0.48236097139418904
H 0.8145087952128496 -1.478617526731473 -1.3537743553158783
H 1.1195251631614878 0.11958445188526999 -2.183094722419342
H 1.7731948203839254 0.851138474988597 1.2671834462270384
H 4.329330754000154 1.3203644362344098 1.0421791616400513
H 5.621464985909576 -0.7128991886729149 -0.15479503628601424
H 3.7669924835703994 -1.337592403203594 -1.8862571859376198
