13

C 1.4609870631669764 0.6403947493802923 -0.3247157982692307
C 1.2906085878590572 -0.7639505324195264 0.07424742392761825
C 0.09559853097868733 -1.3079049908922462 0.24896214590510146
C -1.1472539031661373 -0.5186073320818935 0.04825585307440634
C -0.9276625704292403 0.9142009302324006 0.18427337127531349
C 0.2584003572843867 1.4602243826727912 0.016880138014616932
H 1.7563156866937057 0.779080254116447 -1.3818521018337622
H 2.152327065856659 -1.3853540448245745 0.23403143896141637
H -0.028474803513418953 -2.3541366960674175 0.5464347289935897
H -1.9459408259024829 -0.8194693494545474 0.7626752004078354
H -1.5854563629948217 -0.7176799601777497 -0.9640889570943684
H -1.7932534034847232 1.5521933302456101 0.4361654502622036
H 0.4138045776513944 2.521009259270425 0.11873110637530027
