11

C -2.492669122179725 0.45898202718880876 0.7315661162701834
C -1.2844944050789164 0.6610635782848816 0.23381936544655
C -0.46987386479665055 -0.48327030520676084 -0.173851819111132
C 0.846705174233675 -0.5608573246771399 0.5042728721946318
C 1.9361403335735492 0.005926245674577261 0.003306088020507434
H -2.914932030724952 -0.5220766856061665 0.8543010754637811
H -0.9011254377352491 1.6617420345258227 0.12857213440285808
H -0.3965693833329164 -0.6200610938714444 -1.26919888788171
H 0.9000275083678726 -1.102398328884338 1.4379925020373208
H 2.8830826994644645 -0.05119416222407887 0.4932610111022662
H 1.89370852821008 0.552144014796755 -0.9337332791039595
