11

C 2.524365983216803 0.6097385801955437 -0.10466290941122336
C 1.582452376837428 -0.11344018607770731 0.4319391439506885
C 0.4794446554037896 -0.6789777804281829 0.9093965199359935
C -0.7537388022289998 -0.6694701295440332 0.10072101102551351
C -1.7077879575808537 0.42730299423158985 0.49646348467191337
H 2.4783097152556586 1.6809348119090661 0.13312202547091295
H 0.6050249010536332 -1.1024965596657035 1.8775958956951477
H -0.4767115323941016 -0.5264201244489647 -0.9440343997668582
H -1.2721146763633229 -1.6695908075193702 0.17067110776402813
H -1.193195552624294 1.1846330543570232 1.0962624177553921
H -2.266049110575655 0.8577861469907655 -0.34542138260797867
