26

C 0.8828217170802176 -0.7211301475226022 2.7250851384956576
C 0.25348644261950426 -0.03113905771128519 1.8368996816160776
C 0.6962374311423276 0.5163507414213203 0.5882642077852948
C 1.9047685204818985 0.37863037632398006 0.1404177177314122
C 3.0386724082827548 -0.2928537182238127 0.703824618127998
C 3.3251301707466254 -1.469766533779698 0.19230278369774947
C 3.544187042475789 -2.6277232681612075 -0.36253877570019594
C -0.25232693110459187 1.2899024857251473 -0.2674273952518398
C -1.418152045014437 0.5313116099739269 -0.6939525114697059
C -1.6134009505402467 0.37046291063112124 -1.992255630406775
C -2.4166588937110403 -0.08294448166441827 0.2246308288493477
C -3.792994584142271 -0.08352393142855803 -0.3711548610712246
H 1.8959360737694602 -1.0004309293816782 2.6468081820096128
H -0.8155439627214315 0.16369229865390372 2.1006753358685626
H 2.1279856970045326 0.8510408023430776 -0.8453107681447277
H 3.694442668160762 0.013488679899137237 1.4744398819529274
H 3.050860766301927 -3.4550964101090877 0.09239055733076094
H 4.193988169463626 -2.61098448501677 -1.2118115264554263
H 0.2870214678496534 1.681733821192703 -1.1329756547678473
H -0.5507736493898356 2.183525916035325 0.3565607667531651
H -0.9243361295987373 0.7915578166496829 -2.7299136627748863
H -2.4516552246176695 -0.17799624550843876 -2.4081085360120023
H -2.173088022681938 -1.109541501981436 0.5136002214641529
H -3.960291281155988 -0.9426884429835344 -1.0626931367903771
H -3.99400634703161 0.836781105342765 -0.9709579262805665
H -4.532310553580935 -0.07959919574163794 0.4532004634780867
