16

C 3.6326449303784214 0.6838155020301948 -0.22993578296373215
C 2.462533967861469 0.07131267922904154 -0.0744334301686602
C 1.1982720670812848 0.7657299673859613 -0.1878715054661326
C 0.06521250214498266 0.10253902535326226 -0.02275974511603104
C -0.07569151188486542 -1.3278662476265148 0.27749012129165707
C -1.3635150911675016 -1.6161845443850251 0.36852920689008845
C -2.1062904268754337 -0.40585284713744646 0.1353657228136605
C -1.3039582863661596 0.6204050243026796 -0.09704500661239507
C -1.7029442328566382 1.9786278530140258 -0.36923659892080063
H 4.573306978465629 0.16372398135054364 -0.144823222318316
H 2.4857295389928575 -0.9832385497226016 0.14384138360732815
H 0.7564450516827973 -2.0332892620056535 0.4037062668614741
H -1.7233054246811619 -2.62689229459093 0.5869806219097529
H -3.183730956992537 -0.33494740311205373 0.14676718482575302
H -1.9306023983497511 2.6317998953598534 0.44119039316985353
H -1.7841067074333414 2.3103172205546048 -1.3777656098035778
