21

C 3.297460982731975 -1.724549297063827 -0.24522442160544944
C 2.8090999093177835 -0.5345448915366441 -0.011583995294489953
C 1.3615509385544442 -0.31298884492378165 -0.16420833046280942
C 0.49189721173451173 -1.3638170253655395 -0.2221600124084106
C -0.8829302453217373 -1.1629048528766044 -0.36680985910469804
C -1.3966627102217644 0.09583264247607078 -0.45457082531588955
C -2.7955720377533004 0.39665112614616943 -0.6044776425276129
C -3.7053401590272466 -0.5402052928828197 -0.6696989217963383
C -0.4974149674982543 1.1479638810778787 -0.3936706709091593
C 0.8479925835424009 0.9697720717509661 -0.2526426123920071
C 1.8334280975896426 2.0740707231119315 -0.1845506211808923
H 4.341064892986238 -1.952032727975865 -0.152509075071555
H 3.4383851733140887 0.2687103707891814 0.2847705968364477
H 0.8386305626191992 -2.384748914451266 -0.15803270462716948
H -1.5262681803650835 -2.0272347676846003 -0.4071888052936667
H -3.1204050546819966 1.4463331230948833 -0.667226285474214
H -4.740009115681822 -0.2673420113727957 -0.7820141841920868
H -3.4627562278956634 -1.5823548185976846 -0.6154876114801556
H -0.8644861347258571 2.166687943086479 -0.45978557255879626
H 1.8447840003519325 2.7155297074181446 -1.0668185219331396
H 1.8875504804304246 2.571171855779767 0.7790138446682677
