13

C -1.127018456381262 1.8695058510322804 0.11857630000580381
C -0.2864059585127945 1.075017813610676 -0.5271694010200608
C -0.23317618603561932 -0.3800566279948083 -0.42780700327703486
C -1.4241706549280082 -1.0181073168360473 0.2188837121202678
C 0.9741050654354309 -0.7693359662127598 0.33820647208294885
C 2.1140118860491386 -0.17317531737654412 0.06555368962941795
H -1.8856069701129399 1.4926936950301914 0.8105030437893171
H 0.42725258612930656 1.5555082019407596 -1.1906656620198022
H -0.1635040222039068 -0.8042728000750946 -1.47044227712053
H -2.3653036154503457 -0.8868146203367353 -0.3559305713986557
H -1.1914698150988554 -2.0954694834380287 0.3508793199151905
H 2.154068543784947 0.5802776208577037 -0.7010026665351358
H 3.007217597324879 -0.44577105020159385 0.6162941495358074
