17

C -0.5036481917965745 -0.2655903070813709 1.4485620867292321
C 0.14546370670445724 -0.5406044947853432 0.3371510563446653
C 1.518031250137318 -1.0011486929418805 0.3864644832741592
C 2.427782195776042 -0.09488312328105236 0.13917025204847935
C 3.280194522051192 0.8531814399066353 -0.12898162211580602
C -0.5495679053530181 -0.369865062217719 -0.9304006758630229
C -1.7793635244530492 0.03883311374433578 -1.0589555425529096
C -2.6554928835450897 0.39148821220633195 0.06876173156545234
H 0.005340649189110417 -0.3900327537304969 2.385908096510443
H 1.890225409559271 -1.9627422145739775 0.593187596941069
H 3.5433133815690994 0.9757925109150132 -1.1435831383660742
H 3.6216982132301676 1.4094981100484563 0.7208741102597188
H 0.01562668869815299 -0.6065674342040149 -1.8406098954304122
H -2.209230356220233 0.13297020591178896 -2.0690209447915664
H -2.285711558110516 1.2194123364443117 0.6998062639654088
H -3.6550249441030567 0.7395188562410404 -0.2904683729622598
H -2.8096366533328436 -0.5292607026021001 0.6942175373100339
