12

C -2.393959004418052 1.0591418901370497 0.5869040797546105
C -2.1424691945039154 -0.08179950277840241 -0.04785261434946043
C -0.750959945859 -0.3158712928524869 -0.5211810897932942
C 0.21458574659092294 -0.4271802919646607 0.568714677999124
C 1.452570281987049 -0.11034604245935149 0.28971849095457924
C 2.674358405839676 0.22455289810374043 -0.0873943640257583
H -1.6334846460927557 1.801322011254877 0.7631912423947956
H -2.9109861958487744 -0.8259871556535393 -0.2230821891801876
H -0.7167676501286112 -1.264978153763942 -1.1057182678199093
H 0.059382855117370105 -0.7316374763559568 1.5694737053208463
H 2.898329837770692 1.247431789283899 0.038400854764948804
H 3.2493995095420445 -0.5746486729486722 -0.459662107056574
