24

C -4.232961948587725 0.6681138753965079 -0.3779213242378271
C -4.352818557247204 -0.4643247603201269 0.22029021199929055
C -3.313292409161352 -1.2485856722569604 0.7879911341023083
C -2.042772032879909 -1.1527411504986305 0.9098487704635333
C -1.1004686114694746 -0.1707272499455889 0.5061335106640223
C -1.2944540639507518 1.0921999419439126 -0.20448806077237972
C 0.20512497500309224 -0.4474219851619128 0.83434039231862
C 1.2047339671878936 0.5135800722815292 0.44981735694507935
C 2.048573646517526 0.3299611485111956 -0.5483918686267191
C 3.190456128356278 0.01775031480076977 -1.0877952763187346
C 4.267627178967324 -0.5454799103019021 -1.5848289061178735
C 5.599716320270927 0.06165856170539183 -1.229379490413713
H -5.013460506732271 1.255663673162689 -0.8034608854868565
H -5.398999094837306 -0.8459811712302887 0.2844401561195894
H -3.72988500570936 -2.2297320489567563 1.263277321764739
H -1.5754943202786498 -2.053273034815559 1.4622309059232945
H -1.6641694610402438 1.0173918334981273 -1.23608311959664
H -0.2701944042564934 1.6204026367793027 -0.31766003338312704
H -1.875146015192831 1.8289471268641375 0.3711313990013299
H 0.4574758746521181 -1.3614421060685464 1.3642872807650166
H 1.250947653970247 1.4415738755279899 1.0302844368243762
H 5.540506317659538 1.1331376110022056 -1.5195864220225588
H 5.694185118643266 -0.03520764070369114 -0.12884155057609747
H 6.404769250065009 -0.42546394112114594 -1.7843870601211294
