22

C -0.6747726912833121 2.277055587689926 -2.0335320082672568
C 0.007788051573756832 1.5989304449485202 -1.0828697699802714
C -0.6322472441364515 0.5307188138257602 -0.3427287817259387
C -2.0370896318190095 0.19584147408011246 -0.6447900064939687
C -3.1769258125745505 -0.0974180265708471 -0.8919346553675618
C -4.560999737709623 -0.44587498151541743 -1.2089585091195918
C -0.06062686401001345 -0.17741675965139336 0.5895708725018675
C 1.3403670813003425 0.05084575325897017 0.9927664828404743
C 2.1896587656723367 -1.1387228754604322 0.7740044661435539
C 3.4669607092922328 -0.9739056505680131 0.9987779156122711
C 4.7328508522732955 -0.7308004961398257 1.2521771648246518
H -1.6912768554852 1.980851827938599 -2.198780910008742
H 1.0298850167621787 1.8584595308182634 -0.8821647355421898
H -5.131681330481703 0.4455688250439481 -1.5443935104121298
H -4.5201941887707155 -1.184576798441779 -2.056124183963594
H -5.008966594628288 -0.9266288898901757 -0.31427546540767726
H -0.633409611633682 -0.9875627278420396 1.1120320147826466
H 1.8347618869274338 0.8948241770355265 0.5376979625711302
H 1.2949576238760063 0.22704006595050732 2.1072913994374662
H 1.911599528644194 -2.103356712964455 0.46185189871006155
H 5.288987616141273 -0.38616991715689336 0.41309433800094464
H 5.030373429357374 -0.9077026618736725 2.2508504454559435
