21

C -3.43746744058164 -1.2695252880709125 1.673611706043125
C -2.6035397984855977 -0.5925547587831509 0.9031927855739557
C -1.4842756905981886 0.004588672584699666 0.525991528029395
C -1.1066985581258788 1.3940635767987817 0.8800727951473999
C 0.3437673815502736 1.4158345924402536 0.55320267815634
C 1.1587088852807366 2.4791984197326795 0.6120236913791184
C 0.7956618362888259 0.0947079573050385 0.14539035611526496
C 2.024376804147898 -0.39411255687874946 0.16405017570004346
C 2.398387531029055 -1.7368740742782238 -0.2640733744432694
C -0.42577528079149585 -0.6169799503939781 -0.3082337733408293
C -0.7593638309097679 -0.24242078595735705 -1.755888751860518
H -3.1338927126126492 -1.7699559303812504 2.582594149668567
H -1.6753629885860064 2.1485113723932847 0.2939159155653202
H 2.190331638254356 2.4301131507461315 0.3646465502102091
H 0.7714085026123403 3.449059425447458 0.9243543072511393
H 3.4578588967840895 -1.7781726186497884 -0.5980665177940492
H 2.3459657569295254 -2.4086595061858884 0.6393134645432053
H 1.719721581304567 -2.1620594024647333 -1.0340294144244742
H -1.087114280336537 0.8210409220633808 -1.8148426235121768
H -1.6127567672259133 -0.8574959558334897 -2.0674516789981308
H 0.12005853407182501 -0.4083072616340798 -2.419773969009589
