9

C -1.4981691167931983 0.2862409004966045 0.15383150401436238
C -0.35899284178202334 -0.6034161787467015 -0.3414394669821561
C 0.9654558487799869 -0.277327531657899 0.2101223455533482
C -0.0638775203961936 0.7821796613955556 0.06599484431547806
H -1.7940141039297886 0.010579960216038267 1.2019618943219381
H -0.4524947646010149 -0.9094626623989405 -1.3995175458806437
H 1.8365759709244098 -0.23995158623317037 -0.4643314018565213
H 1.2030139887949158 -0.6386151270557525 1.2195296305860774
H 0.1625025390028989 1.5897725639842513 -0.6461518040719042
