11

C 2.4571532253368282 0.3061130320487791 0.34696136485653034
C 1.370354104124314 -0.3530172263379712 0.09019218235926815
C 0.1978916757121943 -0.8565479183937881 -0.1309375691015715
C -0.9714266121491856 0.004074814862070332 -0.20086386579650425
C -1.6326873924925014 0.12009632884117356 -1.3203166214863948
C -1.350085685251255 0.7214354266871272 1.0545169117464386
H 2.943151194523033 0.6875412377552272 -0.5323753810180627
H 0.20748843074916767 -1.920649123048617 -0.24834674772763501
H -1.3271296575210312 -0.4094735807256651 -2.1897042359240304
H -0.729977081576436 1.6207477698114807 1.184237995111792
H -1.1647322014551282 0.07967923850018238 1.946635966980163
