22

C 3.888254778337393 0.3193631262463693 0.3769057410280545
C 3.3042419850630265 -0.856981416349563 0.3845391378912173
C 1.8580978235750434 -0.8891935913178629 0.24357052517947608
C 1.1312904325948705 0.19519421942674792 0.11165172757571253
C -0.37153607536583927 0.09303616368421981 -0.03102360638640402
C -0.9644366494391962 1.2430018655073805 -0.1534181726648962
C -0.16568427558497958 2.495387449463927 -0.14439770461858648
C -0.8522891913910658 -1.2612819462251974 -0.005296176163115273
C -2.2120559426511193 -1.6741926160095313 -0.12314538803101542
C -3.3664872848385032 -1.1196975669306575 -0.29335000556070634
H 4.924051850059971 0.5115707432665544 0.46848998451587426
H 3.8891069944928915 -1.7563733025158985 0.4921869376713807
H 1.624458157606552 1.1460557384164933 0.1076576414888617
H -2.005491114896309 1.3380477238024526 -0.2596847155064058
H 0.5739106870656047 2.4948426031525406 -0.9950055918900442
H -0.7981781026836093 3.3914102580501453 -0.32662212890895126
H 0.40328983263718626 2.6112821314921515 0.8176989808173261
H -0.27590325440414365 -1.8718327742060787 -0.8125661409219999
H -0.3957554049625715 -1.7417087356158725 0.9266785859066973
H -2.3080764976200583 -2.8296246541022425 -0.040567661729814956
H -3.580411619674385 -0.08734349502312491 -0.39711094204911335
H -4.3003971279209345 -1.7509619242130112 -0.34719102764356435
