19

C 2.4542375936555567 2.193693882289062 -0.7334389191234565
C 2.65024062402227 1.224829636030406 0.12655871732043433
C 1.6212713243923906 0.2647053613296768 0.44902174511093157
C 0.4233156813483226 0.3043710438986655 -0.10153650378845479
C -0.5958186247823193 -0.6867768363168323 0.25001239695687855
C -0.26277385898255534 -1.743798947512882 1.2398781359342936
C -1.7987403734600245 -0.6668035980024408 -0.2869242661338654
C -2.1046795910748144 0.4174162748330125 -1.2867967390072488
H 1.5605513642976807 2.402772765801321 -1.2877643051158492
H 3.622255821675667 1.1669230285392986 0.5938925687881004
H 1.8603776012707445 -0.5080210931637973 1.1707715940436427
H 0.15652590829612334 1.0537486645669638 -0.8166063850751919
H -1.0919598282186112 -2.4286219439515087 1.406769850268058
H 0.10743304224563845 -1.2640884645096444 2.1848801640147455
H 0.5964160360591727 -2.330383212803566 0.8227543238014494
H -2.5329497024532577 -1.402194173579076 -0.016596579559580483
H -2.243290535900468 1.3891051352631034 -0.7686622457710006
H -1.3317484564359376 0.4484182161101202 -2.0765903927150196
H -3.0906640259554816 0.1647042611780695 -1.765124829348014
