18

C 2.012929296173743 0.41648515424646826 -1.7621905878055304
C 1.7474535582788564 -0.28134805262011664 -0.6650097725845707
C 0.5241459585838364 -1.0917324356589406 -0.5798279553548499
C -0.42287427505907893 -0.5338979869310273 0.47675979041207367
C -1.677594209410299 -1.3732194407585936 0.5577652195827
C -0.7988115859228322 0.8909973581504915 0.18624062293776503
C 0.3370125105577232 1.833920602080998 0.13690713139871233
H 2.902306952536634 1.022245675301224 -1.8584275773785797
H 2.42912856323609 -0.2533972460667306 0.16294188639500407
H 0.6802790969686767 -2.1602992016769376 -0.4291438022001887
H 0.09357215097073864 -0.6207745267547424 1.454644556538267
H -2.5094168014836105 -0.8417099997261438 0.08043007623476883
H -1.5176315416578592 -2.3462839542260365 0.05067870532776282
H -1.972673575182638 -1.569260042502862 1.61199806223672
H -1.3377195269344302 0.9283804264827882 -0.7837621505836271
H -1.5233774215199962 1.2117541990825966 0.9604420048665525
H 0.34679824675087817 2.542318121679885 -0.6955586893481503
H 0.6864726031136377 2.2258213498977106 1.0951124793251301
