20

C 1.2901283484956525 -1.704308202846985 -2.8012671833482328
C 0.9565819003988841 -1.4592329673253452 -1.6232224239485846
C 1.4490299685693089 -2.346343546947567 -0.4674174740708888
C 0.985847372982037 -1.8670005425738532 0.603222956992103
C 0.15717815359849097 -0.658515423429977 0.3406402786172329
C -0.5018081648676086 0.11747538033257339 1.283326150912297
C -1.0741686434650626 0.7768523255702193 2.066847436789319
C -1.747940728255862 1.572833994563646 3.030896977970367
C -0.8284164567708437 2.791025962149838 3.1927745158942216
C 0.16215247141537828 -0.448821458568423 -0.9678827233726507
C -0.5677033299404876 0.6260335100444053 -1.6499690566665606
C -0.5660719725806777 0.7549367117014683 -2.9889313570306686
H 1.771775167938231 -2.250292590931477 -3.485122468405838
H 2.066812955861341 -3.2141778013947433 -0.6531002513248507
H 1.1581486438275708 -2.260350045814469 1.6116062638049526
H -2.4414450634437186 1.803701226260765 3.703845625401187
H 0.005529857178946901 2.7020340680191963 2.5670321759311925
H -1.1486430719122134 3.4805511897404147 3.8417708893588536
H -0.010676211399121038 0.04272884631244434 -3.499685920488761
H -1.1163111976941922 1.5408693653177876 -3.424862425803196
