12

C 2.8869155424001214 1.6256100015694714 -0.5713378912258784
C 2.034705920185583 0.6302813899173779 -0.3798759846062019
C 1.0481359168140865 -0.1889433377742176 -0.1417643959562373
C 0.5218815690035195 -1.5158301561605216 0.19319190615244217
C -0.3797368384317041 -0.41276285122499995 -0.021886796159660403
C -1.6457046116913112 -0.06274306161403163 -0.04376031190870645
C -2.7790451027170624 0.5518971556263074 -0.19116244758565487
H 3.3989425778521154 1.9635651522240973 0.32845905209235704
H 0.6265461991001798 -2.2625062456823817 -0.6305340668763996
H 0.7608737300496371 -1.9369794710602124 1.1776023223894034
H -3.267473732538681 0.5858507656429417 -1.136780178303186
H -3.2060411700266247 1.0225606585360645 0.6665476228238896
