30

C -5.96799899694874 2.4694073783390658 0.32465472826827085
C -5.602357902429557 1.4041635708688724 1.0082608300357405
C -4.755661666035859 0.3721912977362021 0.41983180637110185
C -4.389266208078863 -0.6942924186892355 1.1035455682478486
C -3.5435876021808537 -1.6779834149208874 0.44461896232772247
C -2.2776213494267457 -1.4103268666699553 0.29096612354288853
C -1.0501067308752197 -1.1196046196323235 -0.03238706104237195
C 0.1527181134568741 -1.1555747209019314 -0.5335465107623304
C 0.507451778591165 -0.2417636661629492 -1.6564780820461287
C 1.1461395638717697 -2.068053267758133 -0.016178013507832937
C 2.3975007558188093 -1.996330803832514 -0.36555983247019774
C 3.693041406012113 -1.751993666196813 -0.4856708520065609
C 4.227326233273392 -0.6286714842243846 0.33622576264646703
C 3.9842400420752595 0.6264524603380305 -0.36099825498130494
C 4.795357453686609 1.6019449881477565 -0.09964492514012119
C 5.341182003889733 2.6716919700896122 0.40392240428338927
H -5.685693322997967 2.6637728366274067 -0.686398183958928
H -5.9286343094515 1.2822128374084643 2.0212426528657046
H -4.420331986313885 0.49802928868369384 -0.6223038390817333
H -4.737962805147482 -0.7821446456089935 2.122143411096452
H -3.9961923911753408 -2.616594467479884 0.09616653718073498
H 1.333083016996458 -0.7131129454766504 -2.2260812070998575
H -0.3529040125016046 -0.13573853602492944 -2.3544742972669233
H 0.7896399934893277 0.755141162693953 -1.2345965831600023
H 0.8542590531299418 -2.8241487573359767 0.6774970908244315
H 5.316697681030426 -0.835416479904601 0.5082963645681832
H 3.760669798682321 -0.5911991035782006 1.3501601989292282
H 3.180917243295884 0.7003986614419053 -1.033176754814667
H 6.248586771835332 2.9272141614193457 -0.0630862965432847
H 4.979508374415913 3.270329250605963 1.1912902628750317
