17

C 2.3621772598779542 0.689137839799822 1.857301588674345
C 1.2046170920852086 0.06444251637323573 1.7076272283928269
C 0.6939406250139728 -0.2951587550461796 0.3888029015108225
C 1.3356345196658221 -0.030834029703737848 -0.7503342526662083
C 0.573152114943668 -0.5125047516769715 -1.8955806833883706
C -0.5246328252049293 -1.0645353054997202 -1.435477887986715
C -0.5479022886303474 -0.9783378669811433 0.03395156009046443
C -1.7542176776944687 -0.25020168943026977 0.5082307818495025
C -2.0341819063050814 0.9333168821414269 0.0047069690026247495
H 2.949933601922917 0.9429311058237511 0.9878081050353769
H 0.594777245963222 -0.20265723660121138 2.553727828632055
H 2.2975437839467237 0.47088618376776903 -0.8849946747286542
H 0.8362589190372557 -0.4437868616484349 -2.9538302117214044
H -1.2936644107630195 -1.5157930040908414 -2.0754087156427565
H -2.41878074982041 -0.6601890737682652 1.2600889014636905
H -2.892031379035204 1.4943663140380794 0.3158260231329026
H -1.3826239248783183 1.3589177324655386 -0.7467287560200928
