34

C -3.26550185433214 3.9492202657724818 0.3227173398830384
C -3.612794845984094 2.6965664819936266 0.6260697539722548
C -2.9207326641494396 1.5649148886700688 0.030964695947810015
C -3.2682662073109205 0.3528840317752097 0.3344295414488084
C -2.6646457944420483 -0.8508084850091064 -0.18406197953337627
C -1.5946733587797408 -1.2891831666330942 0.4623651232744881
C -0.3861988096160751 -1.554444979924903 0.8769207914990362
C 0.7301579923610639 -0.925018294575939 0.23185106644875314
C 0.676629040154957 -0.04131259067582079 -0.749304691007196
C 1.8201421737131127 0.5633081748593721 -1.3656330602437885
C 2.797502436277363 0.9145609342600824 -0.5622016810555647
C 3.7536768021265847 1.1319461689441448 0.3180761689770745
C 4.672013281682929 0.02338421301932669 0.5464054636597856
C 6.091605028879695 0.3896507326766197 0.5897661054577651
C 6.89230125420905 0.1238175177485459 -0.43614105783172474
C -3.113390179228831 -1.6259540758433948 -1.3538073412188611
C -4.515558170802946 -2.1298748416370574 -1.1779016919679046
C -4.750867212678506 -3.3830137314921176 -0.7973520185058053
H -3.8219457323180297 4.739022808613966 0.8015123215866883
H -4.434288431437729 2.509065036461175 1.3364385875866887
H -2.1195942184498366 1.7462815973641994 -0.66181600499435
H -4.093535990319893 0.1821620693904501 1.0480251134738974
H 1.7354638385163246 -1.18423442928656 0.5661210763140303
H -0.307409483877718 0.23586898076323154 -1.1020570124607294
H 2.0147820055742796 0.7778680943507863 -2.38089810157314
H 3.7180296038747866 2.095527479316431 0.7421392991269614
H 4.325669366204547 -0.612341846752428 1.3651320054488727
H 6.4599825579899495 0.8868925667436592 1.4952648424354598
H 6.487589979925613 -0.3621596159718858 -1.2968627564618855
H 7.9554295726335695 0.39351968495342976 -0.4138742812863773
H -2.4443376558188774 -2.4876064850021002 -1.5299419685000002
H -3.101190770839777 -1.036270144929066 -2.2930475498466363
H -5.7691425771631915 -3.7136436938520765 -0.6802177726533222
H -3.946900976573912 -4.080595346090965 -0.6018636059007407
