16

C -1.992107348124202 -1.535831276311838 0.20649031867774564
C -2.46789430413735 -0.17357320844889945 -0.28634855670504245
C -1.3916312313735346 0.8306203507213409 0.11418759787827357
C -0.1438189157055711 0.3958928504737908 -0.5528332049769218
C 0.9596902077914001 0.2907489851041589 0.1458176396952893
C 2.2175888873669125 -0.13130139280766448 -0.4519510315245246
C 3.2837472070848372 -0.21754197152425991 0.29384662038128523
H -2.1168956748581005 -1.6270649733496787 1.3044720814228432
H -2.6061379121735846 -0.23082866107124947 -1.3742634337024318
H -3.3818860326387847 0.12471110716745634 0.2694480372917693
H -1.301002601779589 0.7465424855723195 1.233288962053464
H -1.6718544415644854 1.8591192753830337 -0.14036805312662226
H 0.9019347203112531 0.5367469131186563 1.2187039110695301
H 2.2652981945975204 -0.368458097248304 -1.4949946664089335
H 3.2247733544634873 0.023147339577317225 1.340993542127373
H 4.2201958907396415 -0.522929726356163 -0.11042483073002671
