14

C 3.7574673496771487 -0.2889773394436958 0.2424403160492178
C 2.515962811609202 0.09821090477217251 0.046039815274838504
C 1.2582110280852017 0.04759593022328693 -0.3553323649339964
C 0.27627344799220793 -0.8835303524497038 0.22655702175673825
C -0.8155389636707605 -0.06687508253269399 0.8211436396168015
C -1.8633565766956424 0.3106048776585712 0.1256670203536389
C -2.9752671151412065 1.121827918720201 0.6674658821230153
H 4.230151530435078 -1.0600500070078909 -0.3735603384347701
H 0.9638424750825354 0.7080028995509249 -1.126940744168342
H -0.1240941886861162 -1.6003154517946208 -0.5493111558491418
H 0.7449545901450286 -1.555696227253076 0.9983894606270177
H -1.9177512756504653 0.007816335033849073 -0.9151993583511923
H -3.1510538058719137 0.9696964714461086 1.7457336676299553
H -2.8998013073103706 2.1916891230765794 0.37702822198502184
