9

C 1.7303288564926744 0.5704842493513541 -0.30123633921519494
C 0.9742589710906996 -0.5919340984359623 -0.829331667563228
C -0.3395638773074043 -0.7424112970272784 -0.7577832029623279
C -1.267292487872557 0.21097137872696303 -0.1465547820299867
H 1.8126095463474272 0.5594505986527702 0.8133008011704848
H 1.5440742023931318 -1.3749761928121775 -1.3092211197035128
H -1.9829462578149701 0.6271741077065311 -0.8658161772818064
H -1.802710100850453 -0.3038947277284627 0.6830021475085998
H -0.6687588524785555 1.0451359815662618 0.30951183944018595
