21

C 2.161342549777017 0.8269680531502144 1.326417313041106
C 2.2362142761644535 -0.3851753013500271 0.43931800927685527
C 1.6673098888761193 -0.14305568800574425 -0.9290997464412037
C 0.21116972768275719 0.255047644148122 -0.8841257837218691
C -0.6310548149494292 -0.8295670409094567 -0.23413291847999262
C -2.085529313657036 -0.4429248384692693 -0.18388257214677128
C -2.331222736923798 0.8107275204427042 0.5943539237613235
H 2.8940593149486102 1.5724855203196737 1.008413112457066
H 1.735974322365649 -1.2532787571191455 0.8960778962758056
H 3.3023430882953275 -0.6757328291157465 0.3019561472898183
H 2.2765805695413825 0.6392189103128538 -1.4189268851164794
H 1.8147191781579062 -1.0671283260599482 -1.5236231647131475
H 0.05402222101339448 1.2205386528807527 -0.38127099191186437
H -0.1459665748032921 0.3616934237672126 -1.9283397457463405
H -0.2834217130005471 -0.9742382722642802 0.8079628025036202
H -0.48990094472797585 -1.7944474102398351 -0.7607195425860711
H -2.6193820046626195 -1.276724066359754 0.3290237589789034
H -2.533059024276003 -0.3718818239905077 -1.1990629372378203
H -2.2994473184205297 1.7204112410674683 -0.06965578286219536
H -1.5796333629112869 0.9775706584686105 1.3946491766551508
H -3.3551173284900444 0.8294927293261509 1.0452238003914374
