12

C 2.3554931819353007 0.09487997794923077 -0.19839566198027098
C 1.344533348592529 -0.8519882471388593 0.30458875323946916
C 0.17755755239253157 -0.8635840256613784 -0.2722863355884043
C -1.141890727764248 -0.8116386849859647 -0.5033825256867643
C -1.7518679965380064 0.4491619345101846 0.08588033352109646
C -1.0465331706759735 1.5035953153717787 -0.2732078150491011
C -0.3672852960061321 2.481391324636436 -0.6025873455673488
H 3.229087563609674 0.2874110899630121 0.41027804079121866
H 1.551643220193217 -1.5319642855699862 1.0955736281201065
H -2.810866325298512 0.41581521990556203 -0.3366740360779441
H -1.8254508559830953 0.2859624098048397 1.2060480742396915
H 0.2855795058290759 3.450119483858188 -0.9158351102022101
