31

C -0.43440360627147145 4.813464108989882 -0.5049055675474542
C -1.1945992695291812 3.923314056223401 -1.1087520455848803
C -1.8711330291613797 2.9253218281833147 -0.3512950229473869
C -1.1167337267639685 2.2394890363235835 0.491835736395488
C -0.27147333137655755 1.5328202098579524 1.2095318045657528
C 0.3248425195969009 0.4022602569185611 0.5628614691868067
C 1.5719636916167479 0.047795425665661063 0.9193328776584342
C 2.201616467818501 -1.0738828502381128 0.29781015961008295
C 3.3308476875855018 -0.8250714534826016 -0.32849514996343765
C 4.494670877402729 -0.4952451015395563 -0.8464425432303277
C 5.634021879792094 -0.5730704218561364 0.05710859789625186
C -0.37673050651192064 -0.3398659893047307 -0.43813488255861976
C -1.6385733570441623 -0.5874864562647136 -0.1949569093097439
C -2.8700707869349547 -0.8688290150528657 0.18548953285964723
C -3.0334682147294094 -2.0627862501283745 0.9410251647313502
C -3.8133790822562 -2.987659065582034 0.42649864788247166
C -4.610501990552924 -3.854229595567481 -0.1678217865769393
H -0.30297254404392737 4.813105726395151 0.5699957575641768
H -1.2950107033212772 3.9638644863078136 -2.1833783637056046
H -2.8787991619831783 2.6221627519353032 -0.3348813845337098
H -0.14392761215172617 1.9058715734240417 2.1885909888647275
H 1.9171343530287883 -2.087772686486764 0.2516906192371959
H 4.437089630772937 -0.21458375659258955 -1.861519751899997
H 5.462625616758578 0.019659876000893025 0.978850817151676
H 5.932303270407709 -1.61469429111281 0.29486337793338857
H 6.524619965819113 -0.13074338388528609 -0.4781069372365752
H -0.042568525036699424 -0.7304387638545583 -1.3572121281826441
H -3.574650653808795 -0.14889695782473444 -0.13241479612349663
H -2.615690632082324 -2.3348908380518805 1.8791347653768116
H -5.631293080571255 -3.7510292139891503 0.0864814459901622
H -4.115756146468373 -4.527953245411023 -0.8141828906673959
