14

C -2.8924683994396863 -0.04295145367010576 1.1680083891394255
C -1.597583070017943 -0.27535248301120724 1.1060409585535174
C -0.6542066080840263 0.8553783376703296 0.8793765309459051
C 0.37719558636613243 0.5149239173300265 -0.1137242980996003
C 0.8985543486239388 1.4389884274601625 -0.8823647726681714
C 0.8046468961583954 -0.8600249720713881 -0.22510309329553688
C 1.701957745826921 -1.3112373132697264 -1.0512563997830944
H -3.5703702751085875 -0.8684932327879901 1.332695834239692
H -1.2308087243093508 -1.2767551781268327 1.219118451252376
H -0.28193081204643605 1.3113016322139512 1.794889824978864
H 0.6158701172251961 2.4870330401032295 -0.8424281923675608
H 1.6552996939793945 1.1782911885721576 -1.6083294145140654
H 1.910861922507896 -2.3895004630597505 -1.0068732706056913
H 2.262981578317934 -0.7616014473514646 -1.7700505477754391
