14

C -3.3756081026788056 0.9756397102467085 -1.308747392850012
C -2.185109722553802 0.5096971511225359 -1.1239780568454592
C -1.0370917156661075 0.052996492570759404 -0.7541699378605583
C -0.9139906309439468 -1.1425510718760588 0.14273669797103258
C 0.23389683359157476 -0.9760146954869467 1.0779641569519536
C 1.2421422888081866 -0.1820463742191071 0.8251364976532236
C 2.2739259130747187 0.5364421859306587 0.5046931583993478
C 3.183430885104712 1.1911867280588406 -0.16371522564196825
H -4.159039370318807 0.8424650859554353 -0.5635282210011807
H -1.8473015917212041 -1.1777448347419397 0.7422893053227988
H -0.8243655542437202 -2.0627364450173724 -0.46452850955388203
H 0.2390712880315659 -1.5315624013765026 2.004882805243423
H 4.130360890774968 0.7468560157332298 -0.44203235442362493
H 3.0396785887406503 2.2173724530997303 -0.4770029233650887
