29

C -4.948620938805074 1.3615875984160764 0.3400629869759753
C -3.682690522596467 0.9827958451449399 0.467001512271915
C -2.4126246135060936 0.8012407774688992 0.22668249117248326
C -1.5881704391392226 1.9026564255660856 0.20748467642363863
C -0.23693325701199167 1.8248394807041906 -0.05166167438916698
C 0.3022892507644137 0.5876188346692491 -0.3008775367717323
C 1.7449442383339826 0.5045738200389018 -0.5778546212406791
C 2.513766384655049 0.041294353440793845 0.36892223131735585
C 3.952720958244388 -0.12182427926912208 0.3023385805280457
C 4.614710004460452 0.20841947340503467 -0.7867895468842222
C 4.683311628896894 -0.6625566480894993 1.4644365855128887
C -0.48446462341225977 -0.5348329462165862 -0.2908415883925345
C -1.8775278560185165 -0.43023282710404875 -0.020427910020749257
C -2.594158823974183 -1.5210968934529439 -0.0036481609199685854
C -4.023110527137376 -1.630268856836132 0.26844747614237685
H -5.393955692008058 1.2527350212789543 -0.6385314403632806
H -1.9647342839535165 2.8983694486978417 0.39866666251033045
H 0.3912973596737005 2.735819593180814 -0.05765150380854711
H 2.0654104989796154 0.8347806955774512 -1.5499405705777891
H 4.084216907621546 0.5992343067360879 -1.6258828600245714
H 5.684503393772268 0.0822068767229844 -0.8233896415220233
H 5.353952269849972 -1.4957920016729678 1.1035112462172993
H 5.28189327026862 0.10994873044026511 1.9881037505296413
H 4.013943024042511 -1.1374283566232337 2.2092079083482563
H -0.0665501189172465 -1.5208309371910005 -0.4872489870725262
H -2.0899065003315975 -2.49586829788727 -0.22046984511627674
H -4.618368753287267 -1.221721764846374 -0.5683242023698685
H -4.346911213894554 -2.743018497351975 0.24916819405466806
H -4.358231025570023 -1.2126489749474525 1.2391585493508999
