14

C 3.5704189774527006 0.018855815442652555 0.9158370156660516
C 2.3308327819996673 -0.19287619496897354 0.5735610562404668
C 1.167441515679108 -0.6016868661857302 0.0890730527226976
C 0.7060196103225077 0.07469932935285536 -1.093922732023341
C -0.58197849974366 0.3395398309808834 -1.2193941934820887
C -1.5325624060908676 -0.05382032575262392 -0.1596355339301319
C -2.834040585889165 0.7047616708529255 -0.3994312650141784
H 4.3560286529613315 -0.5016891851673133 0.3732156138877002
H 0.692528940344878 -1.3837106990437666 0.6173932703073545
H 1.3784173145505256 0.38426108717627877 -1.9047922717740347
H -1.1864685566465658 0.20215943438104927 0.8608681390251683
H -1.7752121009328157 -1.1439605438193152 -0.2652991292270347
H -3.6318572493426258 0.3543932833414767 0.25610427922417944
H -2.6595683946649045 1.7990733634095692 -0.3711978648389389
