14

C -2.7805387165053026 -0.12378264798415878 0.43459051688658507
C -1.8026202984152295 -0.981575420821394 0.30051306502251696
C -0.4082338949243426 -0.5684240215860115 0.594515291812212
C 0.14330165799616992 0.060832774232620505 -0.6732127213373762
C 1.5482790062659109 0.4981761531159829 -0.44041884867580505
C 2.1136206053327973 0.30386083420579063 0.7525566703678493
H -2.7176326356133345 0.8916409346656785 0.7434226217000485
H -2.014024524050096 -1.9841028100065188 -0.022734741357299464
H -0.4611458097637442 0.23534530870335257 1.3745498461904073
H -0.5267385379799028 0.9109279155550675 -0.9123698242618034
H 0.08573805911125305 -0.6694117755273912 -1.5083471625407388
H 2.095409203773683 0.9708508073562687 -1.247466675152826
H 1.590073994096892 -0.16527451675682522 1.5747140760302283
H 3.134511890675241 0.6209364648476193 0.9238079088032402
