29

C -1.3033723625749616 2.4676268406406123 -1.3031410415370441
C -0.29291979155906833 1.6612409071491647 -1.0199874858836029
C 0.6417178855348042 0.8595388518185623 -0.634226578493342
C 1.8244923317583748 1.4557773128847933 -0.07623777059740046
C 3.0918995123235504 1.1455954652309985 0.48246931774913904
C 2.731781256940544 2.546694154633108 0.37795413973277275
C 0.42252210647134125 -0.5440906555936583 -0.7910926019991853
C 1.2855925041381913 -1.3451453051988613 -1.5244963040105954
C 1.0378819228239642 -2.707017020821549 -1.6538314110795267
C -0.07492329316510754 -3.2521669126085957 -1.0450960044522815
C -0.9403406357755058 -2.4357396084891927 -0.3068773889595727
C -0.685013534418811 -1.0847232826182907 -0.18482388478103903
C -1.568754165252665 -0.27662253900739436 0.5635535935508874
C -3.0173432658191826 -0.0587100925275497 0.3488180137723448
C -1.0986582907982858 0.38174059822443446 1.582878186398609
C -0.5531162990058711 1.0256972243396991 2.584959521506692
H -1.9694769542114046 2.6367924930690356 -0.46752034158297223
H 3.773489271259716 0.37885076922575617 0.7581595022597996
H 2.5137442198329802 3.079331465381356 1.307383214125957
H 3.255319832187316 3.0996635739636047 -0.44139696517169263
H 2.1493915044552523 -0.8654811454172199 -1.9849656907034412
H 1.742198868450252 -3.2803007505285424 -2.235167858954208
H -0.27794360241954413 -4.310908551582116 -1.1388234452585122
H -1.7915896824683903 -2.9302696339878826 0.14223656004572288
H -3.6003617849600755 -0.8095288129708369 0.9488002646243908
H -3.2052945414348644 -0.2691576968104693 -0.7431695816914922
H -3.340854699236889 0.9655308959235875 0.6179291541019417
H -0.5714475905359668 0.48544839216288593 3.4960956340055156
H -0.17862072254019568 1.9803330635144973 2.3396172532822916
