22

C -1.3557356941184064 -2.2634642271426615 -0.5130656613076363
C -1.4496193764653762 -1.018526379266015 -0.0685092597502951
C -1.4360347065015877 0.08915044687765747 0.6225017024347377
C -2.6135205721882837 0.41144402885561826 1.359035508307379
C -3.728506666117174 0.36817783653591846 0.6971859891682002
C -4.808283090750839 0.5997347279836062 0.02044828616322055
C -0.2227011010360653 0.8840001538347879 0.5756067985242566
C 0.8068374160297321 0.48192009526127133 -0.14433152683260267
C 2.0586969630703793 1.288629996699237 -0.20117227525335413
C 2.995983732808154 0.8183512427822505 -1.2070642641657854
C 3.7335288827242827 -0.22544015762524341 -0.8764136418316517
C 4.4222403312601495 -1.2607100932630977 -0.46454899741674427
H -0.9528033541264243 -3.0171368684947257 0.17526529144559697
H -2.5756055085522185 0.6697648519979905 2.3795799854335153
H -5.442380059304157 -0.23079311814641146 -0.08683250407205291
H -5.073703272496129 1.5234047645609439 -0.4070294430347094
H -0.14177890512355365 1.8178562336790929 1.1289929866491626
H 0.8092796470088156 -0.4321555123830874 -0.7229202361018712
H 2.4690339546695648 1.5336035367023237 0.7737646315179091
H 3.188887936794287 1.1806582353821313 -2.1787995511722107
H 3.9831876639118673 -2.199940463573478 -0.6766152362133795
H 5.332995778502884 -1.01852933125803 0.030385138902405417
