10

C 2.5288336812192242 0.15309154831051927 -0.44517059338171816
C 1.2060796109721972 0.17631553745569264 -0.43715525412927003
C -0.06182656681118193 0.019166665620155066 -0.17332907173826162
C -0.8200692433067406 1.199380062023005 0.2340815794377019
C -0.6842823171230767 -1.3179926534851165 -0.2869485074134612
H 3.0070279883524185 0.027299202933365962 0.5387862064622191
H -1.3411699833431905 1.726450637533169 -0.566809957587888
H -1.3804653712508492 1.0359517844018769 1.1492101517171511
H -0.7425074477546936 -1.8067026665079584 0.7229078509081288
H -1.7116203509541092 -1.2129601182847074 -0.735572404274606
