13

C -2.2533399079247243 1.144032161698058 -0.43302328127887063
C -1.7802148128641826 -0.19091768025079134 0.09424982122188966
C -0.6968400465591025 -0.7146204475073874 -0.7223986395231442
C 0.4976488401156151 -0.7451293379400163 -0.1877957624106579
C 1.663545772946811 -0.6229104591141813 0.42258240048944745
C 2.351522145974503 0.6404879112212858 0.2288448118151371
H -1.484971364614547 1.924104994895879 -0.3831859091047496
H -2.6587514012937272 -0.8907330503500274 -0.021999432127994007
H -1.543431958080091 -0.1816609955754202 1.158079913917474
H -0.7335612246533024 -1.0809085152374447 -1.7069072085139188
H 1.925010401419878 -1.4836352426285482 0.973880899553582
H 2.9846840364490905 0.6655812908089491 -0.6741238722054561
H 1.728699519083854 1.5363093699795454 0.3109042249433339
