14

C -2.1820929292585114 1.396277364053325 -0.4282559506174814
C -1.005840650700734 1.0275445021783223 -0.9085033088238004
C -0.10965185526513721 0.11226251225813834 -0.2186095629252412
C -0.5730789088666836 -0.41554619173288754 1.0894763568914632
C 1.029843760520264 -0.18910706301020364 -0.7767611310829579
C 2.032945052115813 -1.108730625468361 -0.1789106648771447
H -2.5923802354123477 1.0661742533975918 0.5027510905146811
H -0.7369488934059019 1.4585176184562103 -1.8759095984935
H -1.4546987446486281 -1.0932955082143299 0.9004164526339651
H -1.0197557453972268 0.44790569691201576 1.659242239044004
H 0.19844399761184 -0.8920216171147984 1.6895375868579525
H 1.3056101041826031 0.23306507121767966 -1.736829709301969
H 2.0775705208533153 -1.042553188142155 0.9250550949328928
H 3.030034527671272 -1.000492824790559 -0.6426988947528206
