42

C -4.110350763007623 -2.4699446334180406 2.143285569508446
C -2.9286641186513993 -2.8589382307798266 1.362773591029184
C -1.742597698599508 -2.2813136673616246 1.4739006847723468
C -0.5750287821492877 -2.6912030560208153 0.6791005493745874
C -0.3982887210050708 -1.8238891409543143 -0.5772987032322462
C -1.6573714129214008 -1.9820576169142505 -1.4170286955204725
C -0.26829920708059907 -0.39314721688728055 -0.20088775436262574
C -1.2117264564667372 0.45083645601806477 -0.6083151458780155
C -1.1189028445678546 1.9179534121136212 -0.24726586633806202
C -1.9039633595847139 2.7444555210014348 -1.174910666516798
C -2.3941356385044896 3.872932702673631 -0.7725099494391869
C -2.95214606825681 5.003556786988226 -0.45174468097737425
C -3.361995955063091 6.2461350970885885 -0.3287882445046548
C 0.3201445017086705 2.343399072046457 -0.3410627756143833
C 1.2347079440803899 1.4884744217040906 0.063317929550448
C 0.8244094382970668 0.16527314614303365 0.586543157174368
C 2.0179424595851225 -0.6523181977718355 0.7117295527481167
C 2.558570184940203 -1.0413823448987343 -0.4084815532527048
C 3.1588862006536056 -1.3707284809467106 -1.539431643693541
C 2.686382839856913 -1.079778043981399 1.9006214596623534
C 3.9905295646127996 -1.0206984556004244 2.1162779899799524
C 4.942397022923661 -0.4922122133413347 1.1302534147906587
H -4.295426491993569 -1.3743267697538126 2.160603530381825
H -3.0233101318501747 -3.668888779115503 0.6480695562098007
H -0.7313771422633807 -3.7469014455101393 0.38082650153040587
H 0.3312041626699933 -2.575922409160579 1.2882539274273863
H 0.4528624432523626 -2.244893441771606 -1.1073347108872862
H -2.578058557168483 -1.7461234154720475 -0.8772478056106601
H -1.7614705298741848 -3.05095839000597 -1.7285298933342532
H -1.63195569541186 -1.4112013704691253 -2.353238731393676
H -2.071045031144861 0.1780825789445592 -1.1948866027606753
H -2.071752076705419 2.416314201082556 -2.182268709923313
H -3.4884417239021914 6.664206508645367 0.6515054215018525
H -3.579088555546468 6.870108036751159 -1.1924000809684028
H 0.5605921756338559 3.320284965545043 -0.7302261812653631
H 2.3078474984622495 1.7760931919691254 0.005448244353442618
H 2.8150750630370673 -2.2943682110990067 -1.9175364695792714
H 3.870447294799455 -0.6785591450252052 -1.88252174529061
H 2.091954985756739 -1.4930015696405396 2.7123695783496613
H 4.528647948538377 0.33610619264412384 0.5226480580483526
H 5.309501216970736 -1.2660126721357239 0.42242634517181354
H 5.853294015940058 -0.08544337332336274 1.6391182872063266
