15

C 1.48853083205473 -1.114444100399786 -0.3286518864324073
C 2.3130750199130783 0.11325276939299175 -0.21263358059775023
C 1.5224717354876516 1.152129074592046 -0.005670952513550555
C 0.13271319124239228 0.6814251792171216 0.02831821907971777
C 0.09692808154674491 -0.6278311367555336 -0.15706689426763532
C -1.3047335495272767 -1.0996073052728124 -0.12237196947497603
C -2.1005953135687774 0.12392167713115661 0.1114857431873815
C -1.2494733643584954 1.118573662136024 0.19210947082571483
H 1.7533277998944827 -1.7744649049669323 0.5434483972151103
H 3.385037476482058 0.21594937519836924 -0.2762509603952865
H 1.8058314595803806 2.1865611004520007 0.12216326181159187
H -1.631442528068096 -1.494172965827689 -1.126064331098686
H -1.484645972242792 -1.8572740034436206 0.6641772888928643
H -3.193134300594301 0.22125401787610255 0.20531415087218202
H -1.5338905678417811 2.1547275606705694 0.3616940428957264
