27

C -0.6031537966091395 1.282426687473824 -1.5911831845233375
C -1.245828292274296 0.3034685068751554 -0.9523133785295037
C -2.1014978994860862 -0.3679984595229231 -0.1886721314677184
C -3.5066654448551735 -0.11180690725724318 -0.4032858515261537
C -3.925773037430334 0.7506070506785021 -1.3102836404554468
C -1.5807365841785113 -1.2966943595406406 0.7815399351253072
C -2.4809346360215003 -1.9519749539661257 1.540303747615971
C -0.2343011885058783 -1.627817463733238 1.038787202050669
C 0.6957441824352323 -1.047774104665543 0.3622368414226937
C 1.751177986325473 -0.4987965703855228 -0.21478163497276268
C 2.0445315241924122 -1.0481620934884828 -1.5110246098347135
C 2.3696055934311784 0.5268509631374805 0.5774068938306824
C 2.403002931216786 1.8582728304914229 -0.13424449956823442
C 2.5761363923640674 2.981761227431245 0.5640810225185767
H -0.34349500423592205 2.12780023258343 -0.9549426277020231
H -4.291859870191683 -0.5992988962724337 0.15260418785501237
H -3.1811444969140874 1.2660357481456763 -1.8949597731592647
H -2.1912479481896896 -2.6669587795584495 2.2933597911186503
H -3.5046282978928636 -1.7675321789551648 1.4058738705191902
H 0.1395347595926295 -2.3384414796289423 1.7613934102956503
H 2.6483923636615434 -1.9886345724254195 -1.3838681890013744
H 1.168534214005487 -1.3312209068633931 -2.1249694241399895
H 2.6661055204067985 -0.37887836122631346 -2.1699738150167
H 1.9693329181198258 0.7351256523180189 1.5589756085151802
H 3.46395118794785 0.2514256866522253 0.6842339110815394
H 2.5965059666547905 3.9245008191866515 0.03080910944298316
H 2.6987109564301126 3.0137146825140952 1.638113057145135
