16

C -4.954077644602104 0.48178244538840465 0.36893320472262814
C -3.6550774797262373 0.7056613649624722 0.2835314909574261
C -2.4125068387887487 0.7989343454860297 -0.15402313623998357
C -1.4047139281442818 -0.1538926402592616 0.247784888881262
C -0.12082339355129472 0.12224321820422675 0.22867515931653706
C 0.9114767906805604 -0.8177375126111508 0.6274079655771562
C 2.0962837601787085 -0.698726352424341 0.10556597679849611
C 3.330879378783848 -0.47281161412005307 -0.2390202278824064
C 4.539546384279761 -0.002431508254011941 -0.46708518471741167
H -5.365192385256474 -0.34687675230535975 -0.1886675274890609
H -2.1806852909027254 1.611338814371047 -0.8229120610615281
H -1.7198760763851593 -1.1281179979869589 0.5755062760680387
H 0.14941252641832278 1.1337675373852125 -0.11514117406864019
H 0.7295433844557794 -1.6066462419190537 1.3376891255593135
H 4.668127093172023 0.962837868536419 -0.9536135359877245
H 5.387683719387907 -0.5893249744536468 -0.16396127156958137
