17

C -1.7454949180363781 0.6972149436292521 2.0047881880618528
C -1.8058182101745743 -0.09699538456053286 0.964682929993049
C -0.6622514958720468 -0.09555055509400175 0.008061485705084862
C -0.7043652795274208 -1.4057326721871282 -0.736226038401549
C -0.8614924371155231 1.0843553848455085 -0.9123726987076595
C 0.5710177517659736 0.10226941935563334 0.7634228669746782
C 1.6853150458497903 0.10304970486126107 0.07871450676624739
C 2.75595697775079 0.0872471957826927 -0.6965411824843784
H -0.9432245121233812 1.3684334458405945 2.2540601727438205
H -2.6697785973404313 -0.71745379445709 0.8367703624899011
H -1.0013358148234615 -2.2506012549218495 -0.08318164005670678
H 0.17799734910883164 -1.6043630590991396 -1.3464064417548087
H -1.7557973107783273 0.969031538527348 -1.5619267997172863
H 0.047060964894647166 1.3423283056840467 -1.4757881742555177
H 0.7006843258451448 0.24808582848060692 1.803381379399685
H 3.0289568986044686 1.0334918231874075 -1.0741957790942294
H 3.182569261971907 -0.8648108698746145 -0.8272431376621482
