21

C 4.037565949299344 0.4024472322480843 -0.9411501643283499
C 3.253538241034527 -0.07196439700409901 -0.0028099387803578926
C 2.0165896364671423 0.6351312241467261 0.37138005312060024
C 0.878978516736925 0.01153990120287995 -0.38276971388504843
C -0.18150037491986146 -0.33278095949049974 0.32444951389200904
C -0.29693020467963616 -0.1387874821844909 1.7788241525853046
C -1.3377972489853058 -0.9580682220188629 -0.3911445380705549
C -2.5084251793483534 -0.07588843043984288 -0.1703350164354704
C -3.1190242769958934 0.4705501590771333 -1.2063339061556209
H 3.7813421382993377 1.3123028914505228 -1.4438075533416956
H 3.5736571247811626 -1.0107785628976684 0.4747528442066189
H 2.07705678748441 1.712167579772857 0.24604752551914377
H 0.9272670174440065 -0.14718250475554256 -1.452782766582733
H -0.6889607009921337 0.8669626311535256 2.062078851513032
H -0.9339330800685302 -0.9046641423758228 2.272120942343942
H 0.738867049120319 -0.2703316668521989 2.2043710641448637
H -1.4805295162255605 -1.957179864475602 0.08393433111014362
H -1.1512514648011254 -1.0365660574183457 -1.4712833652771269
H -2.8709105363975786 0.12573718191007568 0.8522862461061537
H -2.7455097815740515 0.2580603072743072 -2.197099856358213
H -3.970090095679216 1.1092931816768532 -1.0107287053269314
