17

C 1.1969282124905414 -1.6465494868808332 0.13155162880124596
C 0.8341988077006833 -0.2393221589971334 0.46304772732891847
C 1.719036412225862 0.7582068480759905 0.4533271984205653
C 3.122330293059775 0.41037444829830244 0.08989549636474924
C -0.5637073114194343 0.05933617427520879 0.8164712538983047
C -1.483024682714719 -0.07698266238252373 -0.3588114833874657
C -2.8902240862300443 0.2543652603866283 0.12675810645802604
H 0.7704412998036725 -1.8561282331125584 -0.8656227601266352
H 3.540763053747101 -0.13190427696409002 0.9725429108985599
H 3.7229625424838573 1.2956322531473128 -0.18171741428150817
H 3.0456117189736704 -0.30212258024420385 -0.7799416332583573
H -0.6839961927592677 0.9883348645971661 1.3861594005402962
H -1.2084740976366586 0.5635402400565221 -1.2104304324277346
H -1.4347129913891827 -1.150342729944082 -0.6886753950293569
H -3.494670269854742 -0.6665424125285877 0.16949538585823395
H -2.8692858966132295 0.716184187630248 1.1468612020561533
H -3.3241768118678925 1.0239202645866499 -0.5594933955474763
