26

C 5.305325884446959 0.28054310050834663 -0.9202289722080967
C 4.5155825952349655 -0.16771757792351058 0.03768824688581109
C 3.652996962704434 -0.351326173164141 1.0022068377432696
C 2.306388604108799 -0.771271937613688 0.659467874334299
C 1.2460981180697708 -0.3154175376146752 1.2913247380526804
C -0.13182583264091124 -0.75014738912112 0.9348572538822076
C -0.8715524621281551 0.46561428313400754 0.535839107424076
C -1.9378768754348055 0.7635712127418925 1.2300238366075618
C -3.1605939289188667 0.9180987415452424 1.7169914823249723
C -4.223162730479461 0.1911819513543278 1.0317103832781096
C -4.276660884564507 -0.001609323418487879 -0.2517518864573644
C -0.5145007144775119 1.3268923220603983 -0.5448879125052964
C -0.21328228437469157 0.7678898985183414 -1.688906611306991
C 0.0640280517165705 0.10479872339271573 -2.7877857349415005
H 5.093997663403133 1.2893726584206535 -1.3060810766508733
H 3.9918315235451787 -0.17796092799083482 2.0071721953168886
H 2.1700946762282745 -1.4772833511061956 -0.13593256308803806
H 1.3998753453012227 0.3941627266152383 2.0888651809981176
H -0.13298883190932428 -1.4252473183650627 0.05581695007178035
H -0.5515721579029002 -1.2115191833126537 1.83698851507397
H -5.009698139616223 -0.20526799585978758 1.6570690577118696
H -3.503142455466334 0.3861311971781243 -0.8838281211340014
H -5.083522739241641 -0.5439059592248897 -0.694566364894108
H -0.45423261231828765 2.3906546684440655 -0.5613208647842501
H -0.7626663545271989 -0.06902887374024738 -3.420509879845719
H 1.081059579243401 -0.16689704788514234 -2.89022167188894
