21

C -5.901933616854269 -0.15824474821538176 -0.14909051356414288
C -4.736650783930753 0.19193248541681746 0.3668951882290104
C -3.5325053350376727 0.6430953352155345 0.4783492722136715
C -2.281687292042404 0.99186113451258 0.6003178729358071
C -1.2133866671325269 0.06474064246060351 0.20703593028106845
C -1.3962140159767449 -1.0140174763171963 -0.5363478835678557
C -0.1090706136085771 -1.714490706845538 -0.7372871038988321
C 0.8537789412948479 -0.874019907210907 0.006309007728385217
C 2.284097412679138 -1.1570365628948072 0.1075608010357441
C 3.192772354450132 -0.23401591118902193 0.04101825012714823
C 4.04397897712093 0.7144327756791518 -0.17240737255046357
C 5.076157695897343 1.5278770267922461 -0.09438222770733934
C 0.1906600316936082 0.13448150207458928 0.5341234664194323
H -6.663654873063018 -0.4185271452680976 0.5581896679760968
H -1.9855610726168733 1.9486944186540847 0.9842113276861116
H -2.371513600945806 -1.3290930232241518 -0.9382563807302624
H 0.17585925185505943 -1.7700021326273487 -1.8139303107028744
H 2.646661880513291 -2.1806959239201262 0.24617729568275246
H 4.976784395545713 2.5637823788833267 0.1914455164834926
H 6.075248733006972 1.1621489990113008 -0.3224315044182654
H 0.6761781971517464 0.9070968390123533 1.1375968549950306
