18

C -3.006462445533651 0.6616269153244055 -0.13928837715595654
C -2.465228198905691 -0.13848426761379118 0.7555974921219294
C -1.0111289276951636 -0.06970336353920582 0.9959170288594716
C -0.18148045523338235 0.9077276727886006 0.2813135878207766
C 0.23892471572696058 2.1563210072808636 0.155770586808076
C -0.16677554952359772 -0.4900534863412588 -0.17579697411758136
C 0.9396545414198318 -1.391564009808378 0.1377684016351699
C 2.064308114181996 -1.1616119467698223 -0.48857848013438765
C 3.164535506436066 -0.8670091529482187 -1.1577532774568573
H -4.0699518664284735 0.6580350606969763 -0.3606086493779863
H -3.0605912266868147 -0.8364459051180217 1.3105575875432147
H -0.6271422497679943 -0.31620683297437213 2.0174019977532938
H -0.11220149158400514 2.924091588617847 0.82921679317588
H 0.9400022205846553 2.431289463596921 -0.6210920462616333
H -0.6700592516864818 -0.7136431810630692 -1.1484493152130164
H 0.9683747448168482 -2.215058365123825 0.8055329991384209
H 3.8040426238264273 -0.18274577047226936 -0.6672040609690696
H 3.251179196052426 -1.3565654265332883 -2.091429634392116
