14

C 2.562435129116618 0.7395824419826629 -0.35936318203154066
C 1.5360933038494078 0.3942626603566985 0.3944907269576618
C 0.9685550038342513 -0.9653608574475198 0.27468249316527227
C -0.4701553927576998 -0.8636744917349074 -0.05660595592769061
C -1.095581652896118 0.2983846771451704 -0.20919098509009146
C -2.5292145461602926 0.4076459904560165 -0.5393746277908483
H 3.049681340760158 1.6942370685077128 -0.35414647053184
H 1.1348725512160083 1.118772843096362 1.0838775939193226
H 1.5062673918043132 -1.5973001161309426 -0.45285652035460333
H 1.027413303102307 -1.5159774783203734 1.2477863529741515
H -1.0367405508659693 -1.7911284609766664 -0.17964499779147508
H -0.5336037689464037 1.215400903239411 -0.08712533437438974
H -3.1271241788712003 -0.46295001568613875 -0.2136872510155228
H -2.992897933185344 1.3281048355125897 -0.14752694054663754
