27

C -2.658096837622845 -2.4765880416153 1.6278630875903706
C -1.8885089139841784 -1.4322424880489464 1.356349903072647
C -1.4130928883822198 -0.2681706052540286 1.0121394234230527
C -1.115294637141064 0.0029895819331684855 -0.3854091838949549
C -1.2592534009085503 1.4366539861524936 -0.6862713954988582
C -2.2432141566043624 2.05475062757542 -0.0910184075238356
C -3.2625097503543237 2.5993263410084917 0.5529980242108586
C 0.1816049194331504 -0.4765320294672953 -0.8296895254371381
C 0.801280205706847 -0.39078478932845917 -2.1119669113766824
C 0.1073633633747433 0.08013662982150203 -3.1362999694001634
C 0.9019541353315186 -1.0801586768057474 0.08090984888364643
C 1.666977898897059 -1.565189710995555 1.0499029876215118
C 2.4690663857602915 -0.6200555437264255 1.7295758497249205
C 3.665989738822288 -0.3806418824158279 1.2461874882955895
C 4.8459638113284855 -0.21434406081817303 0.6810799398975531
H -3.7280530489703017 -2.3927624871634054 1.4769202808687205
H -1.2534509432007317 0.4655009372675973 1.7680879014331066
H -1.889596763235061 -0.5183350433833275 -1.0090283451915625
H -0.6730741348632173 2.041935340846018 -1.3220557497388128
H -4.176856512927327 2.5638283227023915 0.025376797343128567
H -3.014962164781094 2.990695127345059 1.5028706538103627
H -0.9131296417618221 0.4105004179748197 -3.0710264987728344
H 0.5883744630038337 0.13874271577991484 -4.097121832657094
H 1.539704156600339 -2.605075162505929 1.1480525233215877
H 2.25129673347059 -0.04494775208919609 2.608810748898631
H 4.872259941196572 0.5439223780174536 -0.05498704997682357
H 5.597258041811829 -0.8631541328066556 1.0438393708100913
