46

C 6.312142219660117 1.6074493722246403 0.2947824919159488
C 5.245287068928257 0.8875636355787012 0.6214095041072808
C 3.883319896711798 1.4382275313554838 0.7222426630212014
C 3.3526660489581634 1.8840576535826856 -0.6309872661130307
C 1.9956978590195795 2.435720572780212 -0.5451566012209484
C 0.8754684037076415 1.756658895675867 -0.5338579572669649
C 0.7926916230687405 0.26122343722318336 -0.6088675912612146
C 0.007171329071714154 -0.18748588968540125 -1.7593892468150272
C -1.1222126636397542 -0.8872957968602945 -1.768818255522763
C -1.725170181450872 -1.2399687531805799 -0.5853044978328132
C -1.9812636162531108 0.11275570872517289 -0.050440705923991275
C -2.6560752264794933 1.194237784919916 0.09630036739488536
C -2.233519309603295 1.9545123807551579 1.2788105098073328
C -3.723989389317206 1.5975268039604955 -0.8127725128396652
C -5.1103644246825946 1.3117486979301571 -0.2799076696884985
C -2.54162365493384 -1.9494514246316916 0.2893635130977159
C -1.8506289969598442 -2.236342962482025 1.4606870910953875
C -0.6595594158385591 -2.649759741084726 1.0379690734743696
C -0.5343856971242311 -4.1573015697195 1.0034319246657484
C 0.379932283281827 -1.7932466233396955 0.6615648241177458
C 1.5174629426109947 -2.4067631631448 0.21624548988045583
C 0.48889641710367737 -0.3347104313681907 0.728705732841277
H 6.186920077868831 2.6666776979177658 0.08708230312620588
H 5.36657010135181 -0.18126404201384172 0.8317673586915134
H 3.8216660916876193 2.290861109228477 1.413457853815669
H 4.067497172515126 2.6791813019516555 -0.9797787590760091
H 3.4573018360587326 1.0705187903781248 -1.3868468481319747
H 1.882573582260788 3.5328200834170924 -0.4826084899441065
H 1.857607789149384 -0.07244239808099553 -0.8558212209074456
H 0.4224645829986356 0.10395949865576082 -2.7424893596121107
H -1.5627206245569507 -1.1204741913062264 -2.705330792930769
H -3.0673215160590037 2.6924260832606772 1.4805703939974193
H -2.038870465802445 1.355305978025936 2.1811957885949633
H -1.369825037256273 2.598234177039219 1.0348103133297046
H -3.632414205052668 1.1679529344083555 -1.8039492364042145
H -5.444168731491996 2.1507003352350953 0.38086453735420606
H -5.185663384401508 0.3483385175960707 0.2310566505614575
H -5.83956888832536 1.2985828520313094 -1.1221984668133203
H -3.5192565744027537 -2.2389360187467804 0.14204571743709485
H 0.19867003628065197 -4.510938183200696 1.7278092183004352
H -0.24761195155531573 -4.390720484437768 -0.06363009265585633
H -1.4959836210074267 -4.6630897753009934 1.1654481229381382
H 1.5560420661837988 -3.4771253711001564 0.1788041447735204
H 2.377684612029942 -1.8753778170597442 -0.101550643385734
H -0.084265482270789 0.2060011527402925 1.451234436562474
H 1.5807290179572497 -0.23054834985332698 1.2884278388438897
