36

C 7.1946132031593715 1.3926603456022977 -0.09571332473854115
C 6.7363275975809005 0.19525651544482767 0.20624479678319407
C 6.314940802565932 -1.0478210336870426 0.044645307844421854
C 5.006943021121655 -1.3753831697343948 -0.4722507834713098
C 4.0331730770926235 -0.5289888048668857 -0.3647624487259011
C 3.0730700338989827 0.34106031948789944 -0.48997714344397175
C 1.9812962471224767 1.0506694032313517 -0.4226631149654795
C 0.8321435723200085 0.6559282682212838 0.3821891611833322
C -0.29919944037988266 1.057500919485989 -0.06314938404922438
C -1.4406182121989535 0.4742295480677657 0.14317248270200605
C -2.209677252671034 0.21578428212356243 -1.078158551082878
C -3.4935554301397693 0.8312238855630226 -1.1708294302181128
C -3.6370693244832295 2.2641384896055077 -1.1250190598525334
C -4.558252032278397 0.10469980790360958 -1.299081663456915
C -5.593970205614701 -0.630407068450373 -1.5095546721977946
C -1.983944922652432 0.07814293998009174 1.4557780910583153
C -0.9956301837048688 -0.8171664696461994 2.109181855675121
C -1.582097018196914 -2.105153526277094 2.5624879470798385
C 0.27356468351375507 -0.7158827447579867 2.369900832395498
C 1.118933796365596 -0.13387869014043938 1.5727612897812184
H 7.515550998143782 1.6625043468441847 -1.086280529508143
H 7.014117512989538 -1.818550284569588 0.3230976031504132
H 4.8491592886802435 -2.3300655830353905 -0.9478452944933591
H 1.9647358396465904 1.9612559383628507 -1.0001725544582865
H -1.5480720887782597 0.45697236826686216 -1.9622267198085437
H -2.319434023268372 -0.9128422825987987 -1.1467640779814845
H -2.7423325849309625 2.7389793438851497 -1.613206797522478
H -3.807893405052342 2.6941333882295124 -0.11663588619197388
H -4.494271782559911 2.5604449173107144 -1.7941437505120752
H -5.89497270214087 -0.8722724333285903 -2.4760957409222946
H -6.122378984060885 -0.9764113013875864 -0.6814995204946017
H -2.0977424246322047 0.9947490404519448 2.0934279162845764
H -1.6963446945678655 -2.766261315395583 1.679184811124667
H -2.592239492976309 -1.8624326240066984 2.973249980499697
H -0.952619735613162 -2.5630040397942118 3.3539525111926394
H 2.153746266700095 -0.2738126963913747 1.8583436519381231
