14

C 2.0849104453384704 1.6462773550777978 0.682415839599569
C 1.964846774634462 0.40554682900079425 0.28750849135038126
C 1.5485714233572025 -0.6909888117845556 -0.33003636163101135
C 0.3106249677612166 -1.3459718934634932 0.09878204884432192
C -0.8827831069851133 -0.9330451274169228 -0.6288790788083906
C -1.5051401595626204 0.13318027755249973 -0.18580110304380007
C -2.056899806484357 1.2127956162789524 0.33304814444575287
H 1.5279714742032193 2.458486527111624 0.1959719218404016
H 2.187305057200431 -1.0186870006824158 -1.1314026351922155
H 0.1875376745917621 -1.182752190638949 1.1967321571356118
H 0.4546301204942203 -2.449769790121134 -0.04775430332013514
H -1.339921408941389 -1.3712914473596318 -1.4841558259278547
H -2.7820821255066233 1.0136825569135357 1.0804589450273405
H -1.6995713301008462 2.1225370995319497 -0.06688824031998328
