18

C -2.9347915635142643 -1.2301663631382476 1.1041845647352786
C -2.235454868744566 -1.1564073221580495 -0.0011345560044571067
C -1.0927516183628334 -0.27391055411324644 -0.06097680207143138
C -1.2530520350361283 1.1107402091162741 -0.1559165994153168
C -0.15948264587558592 1.9454482028096423 -0.21249899114677123
C 1.1243888869144858 1.4619475745657387 -0.17867161837719514
C 1.2854752643876377 0.08861167647520926 -0.08451037746252871
C 2.6725340476834196 -0.47100161991385686 -0.04545183979606257
C 0.19896516143163423 -0.7583015064535382 -0.027092121080494705
H -3.7897884059547398 -1.871227227937224 1.1930423402657868
H -2.510621085277771 -1.7447351767184414 -0.8480173461038343
H -2.258807459272795 1.4656200146635066 -0.18079284567713785
H -0.3018120047741591 3.0118672811504617 -0.2856484930094968
H 1.9946933605876862 2.1181209385139286 -0.22314039123920365
H 2.7648523367638838 -0.9825576356758601 0.9430614984429186
H 3.409840338850733 0.3344542259497977 -0.09432006972165065
H 2.75498384582583 -1.2040753740615926 -0.8894739849666962
H 0.33082844436749714 -1.8444273430745057 0.04735763262827632
