16

C 2.5928356227729283 -1.2962857203059202 0.5842024981338774
C 1.3389011559583663 -0.9087816039450963 0.7469506408975282
C 0.6852098612188854 -0.07899131827929447 -0.2612325340118295
C 1.036731030812143 1.332201847896701 -0.24535669883270447
C -0.06752985249342297 2.0477221899811417 -0.20515958839031492
C -1.2034927457610152 1.1426538233940666 -0.19251961688032448
C -0.7846589525241786 -0.1063907210743389 -0.22486507294546798
C -1.6255375530228227 -1.3406176143778674 -0.2253693469347354
H 3.1133626246841963 -0.983155116139309 -0.30862441103354943
H 0.8597807389673453 -1.249442936897871 1.6600741484246004
H 2.0177418661392355 1.8217703709622182 -0.26138395753787225
H -0.14123706006650846 3.1468610112678777 -0.18408838427333873
H -2.269089074344289 1.3960992954066445 -0.16135854441485822
H -1.2951538497361672 -1.99120976545029 -1.0554053855532592
H -1.5883111042800326 -1.8747006339944605 0.7395541298453602
H -2.6695527083246633 -1.0577331084442811 -0.4054178764930447
