21

C -4.7988630669074235 0.5168769785037418 -0.10589602447193934
C -3.4914305954331732 0.2635801528666352 -0.0049122605022453875
C -2.92138984737558 -0.8959240248218445 -0.6478168930657727
C -1.6453641391687757 -1.188641482536513 -0.5790646476158833
C -0.637415851053391 -0.4130731110188843 0.13448767211398988
C 0.6203192426269033 -0.7991398385365529 0.1383768478411792
C 1.609194882749758 0.007377966517886262 0.8683037241201054
C 3.0313353038713875 -0.34197334048272127 0.518716115015076
C 3.321084479960112 -0.14146679362237172 -0.9228994480288645
C 3.041853164884751 1.0134711916653323 -1.4850519640791775
H -5.227354145808632 1.3810511472981428 0.37251250806511904
H -2.8620406671645604 0.9261140456784533 0.557372857809674
H -3.5662214794905513 -1.5543513402873526 -1.210557618062222
H -1.3165659458784114 -2.1040078401947766 -1.111338816152769
H -0.9364802299459505 0.4734523386804986 0.6539633590601023
H 1.505599409916921 -0.12969714321705486 1.9689119403207744
H 1.4570446892509485 1.0726963468962636 0.6042926866110749
H 3.2809838143430623 -1.3819698316546507 0.8094991751296743
H 3.6817128582896523 0.31382999551950364 1.1583415226205798
H 2.607771187147828 1.808937295631287 -0.9115379431471949
H 3.246226935184905 1.1728572871149345 -2.5278926872685403
