23

C 4.1903179317900365 1.5095323921617043 0.4264631285696827
C 3.1807885717191926 0.7609466343947618 -0.0013206568247914239
C 2.1894354266835796 -0.05656490315269284 -0.16194282112456004
C 2.423316015153183 -1.36885401925335 -0.4947192828574961
C 1.3732524074183599 -2.2490616025441508 -0.6625798568540684
C 0.10717612619939366 -1.750124982888837 -0.47991064577912435
C -0.18003934360047205 -0.41681434422625574 -0.13736149119089372
C -1.5791428165196142 -0.06273417466829637 -0.010419703086676531
C -2.224748741803388 0.8993968882358417 0.5795286783990842
C -3.6748503972587705 0.7817265360936243 0.3756463802486197
C -3.9235712874890387 -0.2737693460735499 -0.35857708584455783
C -2.6446987283015684 -0.9114483589957806 -0.6828129197702077
C 0.9002206410804565 0.41131582095551017 0.011994549996615
C 0.7561034637500993 1.6794629863329749 0.25263728121359863
H 4.4344799407392435 1.4004491498729041 1.4955250338703352
H 3.436005394827867 -1.7126144262140606 -0.6255202358425331
H 1.547366073638451 -3.2827961585597505 -0.9250631939373627
H -0.7368857903022143 -2.422972579656625 -0.5997313796580143
H -1.8270977207407448 1.677979179421673 1.1870266490958647
H -4.401010000369371 1.4552485374325423 0.7681022112636411
H -4.887340977234796 -0.6223013389092513 -0.6749840218202818
H -0.12578001154748294 2.233632443953919 0.4115514089943624
H 1.6667038221675787 2.320365666287092 0.30646797293873507
