13

C -0.7792019147834273 1.174611653195953 0.6335169621079516
C -1.5296406180710425 -0.05972426692959548 0.18377829275139984
C -0.7427861915113599 -0.7230022593956633 -0.879015658317902
C 0.5885359549180224 -1.1611253790445617 -0.5218818633359635
C 1.417711740437748 -0.25184988578242984 -0.058374871794592165
C 2.1603682581680412 0.7263568569905653 0.3743475076617965
H -1.4406111643198214 2.074753287929084 0.49406056973795504
H -2.5192390900099553 0.2229941967025747 -0.2303934901485455
H -1.7194109288895656 -0.6653615467044718 1.0860169598838703
H -1.2975368394716333 -1.3514812693561709 -1.571526098701009
H 1.0198762940752963 -2.1297069243661224 -0.5747528811463544
H 2.121990657290497 0.8922146855341592 1.4310244342521583
H 2.719943842167207 1.251320851226676 -0.36679986295076933
