18

C 3.414988945871411 0.9346786934114718 -0.8284737814931538
C 2.4377989884413376 1.2818887355090571 -0.016046278380911317
C 1.7517685686425544 0.2913726913143668 0.7424841438715614
C 0.8976387377609958 -0.45166398166165256 0.10108262650099276
C 0.005075593331474304 -1.0855571265886494 -0.6003984439656401
C -1.3254778466867225 -0.47415894148154697 -0.6554098709979482
C -1.3245289087951087 0.9666834030731706 -0.2944473481681218
C -2.2659800494914184 -1.3042538502461474 0.18989437462175157
H 3.6875623978832857 -0.10349079849433687 -0.9115763752430858
H 2.1683375111292573 2.3418434947755116 0.06101805975089698
H 1.8290991929928075 0.05827703617654999 1.7793757685151494
H 0.3488389068503644 -1.9720417961374226 -1.0515145662944985
H -2.2183527590756102 1.2380860324413552 0.3221358448014343
H -1.3791703211023898 1.562575359688501 -1.2426876654224157
H -0.44966506732794254 1.3219159778872167 0.25225051513092506
H -2.643975695870693 -0.7367656192085489 1.077933008463643
H -1.787309512142143 -2.2228345989483818 0.5807059486144818
H -3.146648682411092 -1.6465547115103072 -0.42665340479175096
