10

C 2.023874272190936 0.4597341055723859 0.39290598865496557
C 0.7787622435154181 0.722441950671237 0.011161958697276589
C -0.13203583176160175 -0.38081634248017576 -0.29492618237165913
C -1.5857545519698617 -0.03510625397063457 -0.09289513044831058
H 2.413497636257312 -0.5450000882174544 0.4932547730049772
H 0.5070196459235836 1.7811082549687665 -0.051392010048405525
H -0.010557918773236403 -0.7109852420800143 -1.3665830530671412
H 0.0719216874363201 -1.2814652111607994 0.32144632293445463
H -1.8844287920426572 0.9026548787002303 -0.6060579748987143
H -2.1822983907761992 -0.9125660520035326 -0.40878429291166996
