16

C 3.344550754620377 -1.1181627484172878 0.6511485787520505
C 2.35872143985455 -0.8301249309498678 -0.18289330537398824
C 1.421820132264894 -0.2867373297602501 -0.9068178186020083
C 0.0667901609188394 -0.30140441650028443 -0.4052834065102843
C -0.6530293832229871 -1.3903297611973606 -0.23180952881542277
C -1.966929399490861 -1.0315465170723073 0.28657047869268054
C -2.053508258410188 0.2782385763310001 0.4313101133350723
C -0.7654926436370283 0.822466364968927 0.00017591594114301255
C -0.4261059912560052 2.107469802093314 -0.015269340821032736
H 3.6434263662840554 -0.34930050288939624 1.35548156671987
H 1.6669828564003613 0.1531115744899929 -1.8398474017976065
H -0.3398429276038402 -2.4298619257595804 -0.43740540505659126
H -2.805313651509849 -1.6992510738362947 0.5402559981490256
H -2.901068922112448 0.8694959486831846 0.7966302725702918
H 0.5481361369303618 2.376413054067601 -0.3536454132623218
H -1.1391366700302983 2.829523885748624 0.31139869607910015
