19

C -1.8822119482696733 -2.1659024867866647 0.11351620816661384
C -1.4704994267981684 -1.033201061317997 0.6236975129952221
C -0.857784250554721 0.04163987424465652 -0.20509861830239726
C -1.7309150438128988 1.2514493307043755 -0.11622272925427625
C 0.5336218357166517 0.25968726279012505 0.33366919442010823
C 1.2874092449542516 1.2895836101166847 -0.3674853621465621
C 2.35971143429664 0.7225258013593266 -0.8805231765806506
C 2.3500678085970184 -0.7159913362282994 -0.5318019147928421
C 1.2808566561627945 -1.0067161062960939 0.18383878371597592
H -1.7683840667772113 -2.3206277152345645 -0.961809462830338
H -1.5719863438756922 -0.8550156276081916 1.6870422478678075
H -0.7873475270243965 -0.30665712089165653 -1.2607887389473105
H -2.2953643813133824 1.3297969075996008 0.8313364254022363
H -2.5111049504042775 1.1994094375562105 -0.9313328253333328
H -1.194319619097649 2.2048181231286796 -0.2841732638653069
H 1.0320144568776797 2.321065877645992 -0.4589711411649849
H 3.1485278505440015 1.168776577661321 -1.4637370344661036
H 3.109072604493896 -1.424492176762801 -0.8217454306695189
H 0.968635666285132 -1.9601491716806936 0.5998605099257943
