33

C -1.7009851483738565 -4.4683861332744 -0.790664216441337
C -1.9004455025121874 -3.1652704900853337 -0.5408816806463334
C -0.7747912490190751 -2.3493022496447358 -0.18168457677958877
C -0.9019052672946903 -1.0487471515019544 0.0792464980294582
C -2.190187763668576 -0.4168509557197126 0.00711410573667083
C -2.2729206856032116 0.8770954108665121 0.27377666240552107
C -3.4956613640564194 1.6714507473156388 0.24743399506463837
C -4.4371483993352445 1.2064907262975426 -0.8408881965354907
C 0.28527431044167456 -0.3106746866673781 0.43150542275452247
C 0.14401901693386912 0.9454745335060715 0.6805449312596265
C 0.06179849070723733 2.238110450757497 0.9499720815045272
C 1.609249424407051 -0.8406444880537364 0.5314190082041941
C 2.421240981391759 -0.573856172775797 -0.4604294738017242
C 3.187087134902836 -0.1418933887110597 -1.431113036529589
C 3.852683860113362 1.0815957104547071 -1.2545235083060478
C 5.141479386005145 0.9662428045614849 -1.0790543510893131
C 6.318636244268228 1.0004788947032592 -0.524680254898313
H -0.6960991078427625 -4.838500028151033 -0.7078401999948667
H -2.931156453670646 -2.8530675176941536 -0.6404202937553872
H 0.2097871386522039 -2.8304510128649474 -0.12617042456016386
H -3.056832607091533 -0.996199837027731 -0.2588030289431844
H -3.201089317547483 2.724722620425164 -0.035868311561154484
H -3.9981994846498017 1.7651693320392015 1.2347915336729602
H -4.702244105896933 0.15414474197181705 -0.6254719673171181
H -3.899226395810547 1.2778022211112636 -1.7947102182988868
H -5.354621970947677 1.833509639109904 -0.8035715132504156
H 0.18464961143510902 2.8442084731936745 0.10059965258095839
H -0.11662293612391456 2.438962637449094 1.9653204760073488
H 2.0508597824004884 -1.4241404912466975 1.2910930978324446
H 3.1947680974798147 -0.8211102010453456 -2.266355640369104
H 3.341450284896265 2.017799944797061 -1.2633245950205658
H 6.546991765315152 0.961319107310335 0.5092980125293973
H 7.08016223009435 1.074516808593762 -1.2265049769196925
