44

C 6.390014872075537 -0.43641391504613447 2.561893977892454
C 5.7468045061387985 -0.4762185524245141 1.4076067405101502
C 4.992936479039636 0.7308502840015317 0.9037718996082753
C 4.544598514871264 0.45678978725003916 -0.44880868603088936
C 3.486262348187777 -0.33325181097070367 -0.5556004019662345
C 2.4825529057986464 -1.1422909130787042 -0.5303698905835631
C 2.5605736094531024 -2.559495512567961 -0.5520297158731832
C 1.2852737330287067 -3.0043718977304423 -0.5088722028669324
C 0.3988308785439279 -1.8163452550259793 -0.4591585331312119
C 1.1331670665952935 -0.7152906593327272 -0.47287408766753297
C 0.48013630078077063 0.5965221236244506 -0.4304989286630329
C -0.9780627454896083 0.5960296675909761 -0.37462696044788235
C -1.6932678064582052 1.718549952665813 -0.3324186754590634
C -0.8934084175341187 2.9849424371943964 -0.3463713232087119
C -1.745234165243927 4.168407277806066 -0.053676276087290316
C -1.4187646845167776 5.051851495077121 0.8943760579747393
C -3.14526427913767 1.813537616042793 -0.27551213500690325
C -3.8208588411073827 0.496921347336927 -0.26695820909248935
C -3.2069972676381964 -0.6482105685963956 -0.30557816698435286
C -3.9402132546229023 -1.9302566816951907 -0.2943641811130218
C -4.0491980770670715 -2.5278770609686534 1.0439877220318368
C -5.1901220686013945 -3.0577606200662233 1.4499458085895722
C -1.7274293867451394 -0.6438140632604181 -0.3622387550877448
C -1.0553089876484285 -1.7817163275922152 -0.4029455570201103
H 6.922937882323615 -1.3030019710987883 2.9090637902987533
H 5.7763052332190945 -1.3945915847686008 0.8373869146320577
H 4.091203134450756 0.8650210752638856 1.5640967528639096
H 5.628384160511924 1.6065498621946317 1.0224689068087527
H 4.892976463481828 0.7619989502204957 -1.389361701898503
H 3.386073722751809 -3.254973610965881 -0.5929147448134896
H 0.9519622590619006 -4.034886117275414 -0.5096268092864901
H 0.754381556172514 1.2285649851441942 -1.3305729562075432
H 0.8323401845674078 1.2213601053020586 0.4276863138854929
H -0.48839251913474874 3.076868530209472 -1.3763680590696088
H -2.650970541199706 4.314747126276092 -0.624279706098982
H -0.5045816198996753 4.875169242252951 1.4473058617528474
H -2.007759172093547 5.907568571988168 1.1264263324360866
H -3.5823563064749164 2.515253130719267 -1.0166027609096662
H -4.903793076368168 0.5037986916652846 -0.2253574898125695
H -3.593318242028136 -2.6461079413646957 -1.038230382400394
H -3.1774260269564256 -2.5260429428190885 1.6913555882932891
H -6.059148039617959 -3.0674288419061706 0.8232482423821667
H -5.262984400564054 -3.4969780704718003 2.4389822518262374
H -1.6428558849056951 -2.6939773408004863 -0.3923927685798689
