14

C -1.2060083782855995 -0.863268476308191 1.1911510521948787
C -0.880661515739819 -0.2137559376534164 0.07844772020122845
C -1.7454402935657753 0.9223573521957283 -0.3274376077085494
C 0.2997333797277466 -0.653837742780329 -0.6716004081970748
C 1.3427283924650286 0.3896308575030325 -0.8067232282916843
C 2.4267124312258077 0.3543703299709284 -0.0415842698353596
H -0.640811618329286 -1.7057966782866096 1.5739188292155168
H -1.8410798100066474 0.9874170536274594 -1.449676960201679
H -2.780647002254567 0.7388753463873168 0.032403356336190424
H -1.4281417074095726 1.8883533022493828 0.10761727263746369
H -0.049663530603466156 -0.9528036669467942 -1.6933724987205165
H 0.7128283280596438 -1.5750028041389335 -0.218084157289864
H 3.203834161928249 1.1048818608309303 -0.12044960809462624
H 2.586617162787993 -0.421420796650578 0.6944729975772937
