15

C 4.39852995669436 -0.32557947778197416 0.6396451205523368
C 3.0918270373218695 -0.16198058005081484 0.6680202564856765
C 1.857095469732939 0.31575495134087117 0.7062885255883617
C 1.1993989037235637 0.5995175431228887 -0.5279419897122616
C -0.025073757364387467 0.11663451166134087 -0.6560725844169271
C -1.266534849985337 -0.28519511025868355 -0.6306736491671155
C -2.256237710846321 0.5942330531052827 -0.10204764406330746
C -3.5349567892601517 0.18290739563300476 -0.07472117153869268
H 5.033127090861932 0.561071026811434 0.5432036432551293
H 1.429941588229036 0.45956816205876555 1.6868708463195874
H 1.5179521663228452 1.13860930441837 -1.3753851513127375
H -1.3915418021010264 -1.2577502667510216 -1.0215725615122144
H -1.9950768805814898 1.576490493950174 0.272681625757896
H -3.766329569037734 -0.7939604833145542 -0.4521195532743982
H -4.292120853709692 0.8418398623509338 0.3238242870387447
