40

C -3.3083761820273536 3.928350996369398 1.2998544240240377
C -2.4725297743011274 3.108211716598606 0.6910116267815001
C -2.8956615343618415 1.737098740019148 0.39679302785462495
C -4.021574537353871 1.63152370544214 -0.5337392349846378
C -3.8999964571838945 0.5660815306049194 -1.3081075844444285
C -2.6253164632391965 -0.15627997917324835 -0.9389748954929408
C -2.9595514911500924 -1.3133433742755172 -0.10734418511192123
C -2.198144492920824 -2.373171841369699 0.07349155875413951
C -0.9473526286192645 -2.125292718762952 0.4127466689649758
C -0.1704196212290943 -3.311196692329529 0.7413873684645919
C -0.2558542472537325 -4.364866932495263 -0.027991006490893974
C -0.18437658060833279 -0.8681295545252805 0.5223525691158243
C 0.7681419789019515 -0.632631472077979 -0.5367767542552381
C 2.0390261133287853 -0.6257529328930354 -0.1763313780685122
C 3.2629253598433454 -0.6708511677272657 0.30758508689968794
C 3.879992342442675 -1.9815056234464032 0.3025529469995236
C 3.7544537723545757 0.5895598530142608 0.7519475042470587
C 4.147915464999453 1.5320212916618445 -0.1039192515252785
C 4.659723558470071 2.844813361339558 0.3656523861847754
C -1.0055158488313591 0.31178247932798064 0.9149376579136324
C -1.8132712833661582 0.8938038140761544 -0.21842867164456403
H -4.288317987708551 3.5660735340013483 1.5671990615052063
H -1.4921372724103255 3.5117116137602755 0.4373957636773126
H -4.851310205745221 2.3311735387017514 -0.58787993568162
H -4.576144788759738 0.22815658407706502 -2.089719780846665
H -2.1657388850024666 -0.4953523930675874 -1.8803843464726815
H -3.8935554977656497 -1.3663689651287547 0.43067743784164303
H 0.30370088140838486 -5.2658515788168785 0.17966699544431744
H -0.893077603908472 -4.347191711331152 -0.8889176162158813
H 0.658951784968835 -0.4604089139907619 -1.5655298082949913
H 3.1981934738225326 -2.82516811981532 0.5479543000319772
H 4.738173904681275 -2.0418822243344805 1.0165398714987237
H 4.330262822314259 -2.2519681107691985 -0.6949991277831439
H 3.8165284942185735 0.80313066868738 1.7996395521644342
H 4.1074324275476535 1.3715928079685527 -1.1723829653748314
H 5.553561777490116 3.1506279141507507 -0.21535202981350254
H 4.9725380404286055 2.7831858685984487 1.4241945849926902
H -0.3412021095630516 1.1002530870545888 1.2985642374379696
H -1.7222595690789133 0.008704125447324587 1.7001764994035427
H -1.2098371348315933 1.4793570754278762 -0.9240659279036537
