18

C 2.248108424617754 1.635799857974265 1.7757830590779875
C 1.82885599117803 0.6244279888194589 1.0532248433072553
C 1.5925335048950682 -0.2453474461319792 0.07809736086940218
C 2.6121672821477095 -1.277409752092625 -0.17210851193081259
C 0.36064159590723344 -0.07576655685459027 -0.6260774693093926
C -0.7770729822261165 -0.2535457687088054 0.024559814513218706
C -2.0937884131090003 -0.09293507190620817 -0.6477738765930869
C -3.0917582284507366 0.4603649269219263 0.32844359409491863
H 2.7828848315743633 2.4438669405911138 1.290304892900049
H 3.5747998931561704 -1.0229164507780641 0.26069282033065716
H 2.2455466487797384 -2.223013358556774 0.29355085302459527
H 2.703322867618775 -1.4802364421091987 -1.2662934089023978
H 0.36724339611854845 0.19307335949460205 -1.6717735289686566
H -2.4555086668088997 -1.0882617474181395 -0.9749069310296372
H -1.9620244400972435 0.6260039944257704 -1.4720802030022755
H -2.8193596327787316 0.09925098457647961 1.3587150516587443
H -2.9990852285154683 1.5646465819268225 0.3061077708696907
H -4.1175068440068605 0.11199795982572487 0.06153386908972905
