12

C -2.5652712124465835 0.4814693670887052 0.13594347734209689
C -1.515957515262414 -0.13341046533397335 -0.7711215827086695
C -0.1494937385552025 0.2699667224736466 -0.428053215390328
C 0.6542789451331339 -0.5023602677336624 0.294898036993825
C 2.0331592746568394 -0.1279416750260122 0.6578981739104833
H -2.522676177545037 0.07764402526804612 1.167212710602649
H -1.572416192844376 -1.243175319576382 -0.7442803144930874
H -1.7982212466079375 0.1588723454172768 -1.8151601039207834
H 0.23730400069751809 1.2245576324805434 -0.7647811137771945
H 2.718146163430589 -0.981929416288498 0.7318407325579797
H 2.4328882299660406 0.5788809058497124 -0.10173928049697564
H 2.048259469377289 0.3977607811304856 1.6373424793800795
