12

C 3.1442220607918214 0.31527457213607696 -0.2627937396242876
C 2.117510217538694 -0.1369811751963003 0.4104945492228946
C 0.8890276368254982 -0.3109698263353646 0.874276033212304
C -0.2555987863964972 -0.6104025383066194 -0.014864686682920234
C -1.21601359578718 0.5443000308548996 -0.009394811648769267
C -2.3303577201537675 0.4761872951923581 -0.7242700050679969
H 3.1894264166120947 1.3945953922015921 -0.44831444984525376
H 0.7158229629073591 -0.22999115700144965 1.9320183690676824
H -0.7497621584099269 -1.5215255611731733 0.4038562408355444
H 0.06700968070473974 -0.8704522135465975 -1.0426908578200287
H -2.984799012174476 1.3427572649746153 -0.6796858907140602
H -2.5864877024583373 -0.3927920838000356 -1.3257243171880368
