18

C -2.299549058364873 1.723460400549909 0.2049557754504241
C -2.192772319686164 0.4451131688465764 -0.1417819678519972
C -1.2734726769637787 -0.49580588752740445 0.5433021163841575
C -0.6422881601265563 -1.535625187181308 -0.39128373536349
C 0.17110091067636693 -0.41841414559300166 0.27671504042840844
C 1.19266705655094 -0.8917793118889256 1.2153828322806595
C 2.3126761420846744 -0.23165002304113563 1.5051251394350114
C 2.499871099155303 1.079372548727718 0.8006334817671482
H -2.962954401592218 2.3883609693959915 -0.2945803261014765
H -2.803494475841185 0.07679828410697852 -0.9591450909304733
H -1.6829247155100027 -0.8995250936045726 1.4927635924702578
H -0.5455397676962018 -2.56279497933606 0.021302438299771076
H -0.8313711221621037 -1.440557809309772 -1.4774527247804659
H 0.4777377363944098 0.4186455662457741 -0.41431357927112056
H 1.0541077986140635 -1.8402456668175378 1.7230588711068475
H 2.6280757796525434 0.9322293762704137 -0.29615040103948725
H 3.3608348522579847 1.6144998240369661 1.2586053360828884
H 1.5372953225569037 1.637917966119302 0.9889300602671645
