22

C -1.6512717344948227 1.8770244598062962 -2.0545503398618448
C -0.8038008622095213 1.980836315045697 -1.043646283061584
C -0.31274138146440883 0.7604078454310313 -0.3719625281052911
C 1.1635074108092265 0.886035999079664 -0.2147974925915552
C 1.764196517974978 0.3557664726583932 0.8295616674261258
C 3.209655517835583 0.4831185125292396 0.9760789157200225
C 3.918334735024965 1.1238137844599734 0.07184697841936448
C -0.9492956209710276 0.6404465052594875 0.9485039253182465
C -1.4804160373471948 0.5320936084618069 2.0152116373959985
C -0.6647738561160627 -0.474138624072939 -1.1323852440740247
C -0.9555530854817492 -1.5674161488731353 -0.48341506378602755
C -1.5040241147009161 -2.6359324918224605 0.026123082277469328
C -1.9457610615130174 -3.759155613986209 0.5109223838253618
H -1.9995935074626876 2.7630752087542922 -2.5322468412180146
H -0.45766173809936006 2.941694935650278 -0.6920445378729396
H 1.1855668360674438 -0.17262220928744854 1.5754026964188697
H 4.9930650729669726 1.214151803223486 0.18819428157046564
H 3.4457206397948354 1.5605432919808815 -0.7832636781211603
H -1.9580934217729233 0.42352475126938105 2.967916235304971
H -0.6768428724410079 -0.45596345119211334 -2.21463081125189
H -1.3725653474258515 -4.408286369667729 1.1524188759445309
H -2.9476520889718496 -4.069018584704548 0.2607621403279335
