27

C 2.148818993793031 -2.0207166401070524 -0.6990686412106242
C 2.249976828025061 -0.8591924776985023 -0.10965157813532507
C 2.430724998136882 0.41128722688408403 0.28991404548682687
C 3.7833453408213473 0.7942246038920027 0.4561681916817527
C 4.140014645778025 1.9955415492541502 0.8420399702074788
C 1.21269876621808 1.1408731330838207 0.47529626911958617
C 1.214615308377804 2.396229869059129 0.8619484443375254
C -0.10087462568901773 0.5393807895555539 0.2508939860673334
C -0.2603349843942893 -0.6988514800583718 -0.1343219637013351
C -1.590267508350063 -1.2991180023701212 -0.3588381869923873
C -1.5584833403934113 -2.743261272892072 0.12791673237385776
C -2.693403521890653 -0.5556647370672805 0.24773581274964898
C -3.2314265196211402 0.3796647486725621 -0.4934532287607546
C -3.7276010367349475 1.2934579688540147 -1.3044366862209325
H 2.0775352418054633 -2.0200449435701575 -1.7685374127053417
H 4.595977105021592 0.08891924453306034 0.2667290898621233
H 5.146332093431336 2.3192086068625826 0.9777849436235967
H 2.1108670693663822 2.933800715504279 1.0563971279375297
H 0.2421363435146217 2.9228304634450835 0.9927125171177447
H -0.9903300569542361 1.1346892552656227 0.40697095047200216
H -1.7285757705815135 -1.373002709886966 -1.4760158467114355
H -0.8242265367782156 -3.2632241011797523 -0.531448511347922
H -1.2095764440831296 -2.818021435985953 1.1727763493833516
H -2.529561019337718 -3.2426667347753444 -0.02213103479541939
H -3.1297106242660857 -0.6578377535323137 1.2050268709576948
H -3.263487794455831 2.244223491651597 -1.2213888960934804
H -4.515182950759452 0.9572706226061418 -1.924531005771827
