21

C 5.229251598914867 0.1727886355311459 -0.17449971555299848
C 4.000305059389044 -0.28257042954101513 -0.06709605160279415
C 2.8344507579253513 0.5649008806212515 -0.31669057529217437
C 1.6019895013426602 0.11762697169235942 -0.21156070623401
C 0.46856496790170815 0.9859526161775748 -0.46642223961549734
C -0.7773358618783546 0.571441761431857 -0.3704847880575146
C -1.0356213374353653 -0.8307936366541969 0.01101897652067537
C -2.107282666033222 -0.9444108681886372 1.008372273451298
C -3.0278808921765257 -1.9067344554885393 0.9041997011502778
C -1.9143419312240466 1.4396139860265655 -0.6253883251153575
C -1.7433275447774754 2.71253489032561 -0.9726512819761037
H 6.080894048643238 -0.4637846994439813 0.012638350140538757
H 3.8486652319107852 -1.3130110252889673 0.2137961943150867
H 1.4747034853684706 -0.9317300003039123 0.07488434692158541
H 0.6475007532506314 2.010661611010036 -0.7453478115051579
H -1.140579352936955 -1.512887824365372 -0.8424114369239554
H -2.123473849896944 -0.22880655432000255 1.8205761363048927
H -2.980475549844654 -2.605867447519384 0.07757435426352617
H -3.8315552807190127 -2.0326590386201637 1.6068901522440007
H -2.9360328937506512 1.097029382351107 -0.5459902601845731
H -2.568418243973512 3.3807052445666876 -1.1681122041863579
