22

C 5.0742282628911495 0.059168247841984295 -2.056527958664166
C 3.93668948542307 -0.47447759700449166 -1.6762802430467962
C 2.8687852930936306 0.35027842672262616 -1.1609465152028748
C 1.725920265224787 -0.17049647189117326 -0.7770734907456979
C 0.6625035152163922 0.6728388979600856 -0.26129580821038306
C -0.5021974718598404 0.20153448575647742 0.1370542942992835
C -0.9674619324216037 -1.1910601670796528 0.1523985271524728
C -2.2006481226860917 -1.1979626882724097 0.6329283343544689
C -2.6276191745569046 0.1551834691649553 0.9611488094882648
C -3.9284737919231083 0.6081866680612045 1.5230663670151097
C -1.61919339915342 0.9735092801881661 0.6652269399135992
H 5.90701298227128 -0.4848698617318612 -2.44655788341904
H 3.8040953126522754 -1.537282728503196 -1.7514994085231883
H 3.0388148258321332 1.4254851661363164 -1.0988729758053601
H 1.5905927126532307 -1.2314288708520162 -0.8509414415200038
H 0.8209342449821333 1.755662083566259 -0.19387267057805913
H -0.38372823232045067 -2.0350673791308242 -0.1761960787458199
H -2.857509815076874 -2.055187750456846 0.7869792630111863
H -4.368427088571214 1.3976112285843758 0.8999291890752776
H -4.592705199170014 -0.26526176448131267 1.559317458697236
H -3.7876005397817223 0.9791872890342583 2.5779425116384265
H -1.5940121327192573 2.064450036386682 0.7856410038280413
