13

C 0.3874229129641255 -1.7711886185546892 2.415797762860672
C 0.6912965266231986 -1.19485866368391 1.257534664980431
C -0.298593321754925 -0.48701177306952537 0.40209832814652974
C 0.3747588060067254 0.7141826290354383 -0.19157081770255516
C -0.5819815257220016 1.439676931531679 -1.0472680179938991
C -1.3792491818898234 2.0180913770111717 -1.752947606061024
H 1.113842621667391 -2.2707797038003332 3.0083628034503533
H 1.7257526091071251 -1.2556292681133 0.9357745374313519
H -0.6760647121907505 -1.1967190133917829 -0.3820211458799523
H -1.1946518733874223 -0.22770295794905626 1.004550095578726
H 1.2431653443340396 0.34753421420148334 -0.7844836635445263
H 0.6831799504462466 1.3709768924780885 0.6445227383160348
H -2.0888781561351575 2.51342795439181 -2.369672606385288
