30

C 1.2530264993037044 -2.7359377778091116 -2.4207085309299976
C 0.22064242266984924 -2.480411488289566 -1.6721912479870544
C 0.13521352264222414 -1.3346888782710176 -0.8061032664171123
C 1.1114384487457498 -0.46747235223729355 -0.7209938022257044
C 1.0689597353499016 0.7292912258287839 0.15806777567882085
C 2.0283180593116317 1.7648838168023007 -0.24683813349100053
C 3.317738041958094 1.5909919533880876 -0.11221688555915094
C 3.8301415472239273 0.32301861754518413 0.4610589994335757
C -1.098579013666078 -1.1126449578671909 0.028786021860152746
C -2.277849921315533 -0.9785755481157723 -0.8464983880940755
C -2.984818258942153 0.12624525143311005 -0.8202238374939675
C -2.6016285181920846 1.1830720736789297 0.05602564874399131
C -3.381829737408419 1.4152772003978553 1.0654815076638904
C -4.011320680102827 1.4816359593830295 2.1985773433435254
H 2.1535402182126093 -2.1827707319576604 -2.518681430232685
H -0.6111826800666044 -3.171537567144446 -1.7105111017969155
H 1.998586501480296 -0.6080033934702049 -1.3076878791215143
H 1.0723393100663512 0.4842264995484414 1.2206109527892781
H 1.658568511314754 2.691406450907801 -0.6655231090798973
H 4.017796946524594 2.3547000203751765 -0.41116297760858284
H 4.180427175285485 -0.3524631467517107 -0.3406461133235886
H 3.0338973150895705 -0.22438807811556397 1.0051726954324292
H 4.669226759503865 0.5882752824587367 1.151992268492024
H -0.9041284675304553 -0.23561560607019588 0.6625666729786452
H -1.183789007776861 -2.0317772199878528 0.6587186021919232
H -2.5215378994153768 -1.8022944415503646 -1.4853107638081313
H -3.8509594887701097 0.15867996758665534 -1.4986142352845404
H -1.729612393498161 1.7474616453422942 -0.10452722638729423
H -4.834736528997132 2.132538483940865 2.207066560566968
H -3.7578884190009783 0.946876739020906 3.0663877974389484
