32

C -2.3115495233370096 3.45186676607453 2.740665367707762
C -2.6950546424422224 3.3047329208204226 1.4953432978036527
C -2.2981425089871683 2.136852929332593 0.7396798546825806
C -1.5319856672398293 1.1753508376279829 1.2831661370209992
C -1.1317202135029885 -0.01740321251226792 0.4979073341271231
C -2.2532473571437768 -0.9926521966973225 0.3994605032863104
C -2.7222226092973085 -1.4442889861219474 -0.7297869798630835
C -3.817641473472549 -2.3939563784464277 -0.7544409561110127
C -4.302407685686157 -2.859467094366575 -1.8887293332731983
C -0.6136996840077131 0.37696705761889726 -0.8501851577095555
C 0.5590615854103728 1.2508647080841466 -0.6907633628635387
C 1.7914355322797222 0.8163076622440772 -0.49484354793833835
C 2.133986911499799 -0.5777117835514332 -0.4136389402608324
C 3.38129279125526 -0.9390642164313373 -0.21707381199872175
C 4.4680524335166325 -0.024042554357824066 -0.0716700075659289
C 5.605265423218923 -0.5272943782161106 0.355054528543499
C 6.694321457818352 -1.1114709220195254 0.768846564605609
H -1.696117176419998 2.6935751690598275 3.1990790741627344
H -3.306550341027013 4.053666533723802 1.0328628758526432
H -2.611226927291363 2.0118668597581775 -0.2843718138527799
H -0.2639639972848894 -0.48435850615483 1.0488783249998153
H -2.6890529136054675 -1.3327949736976 1.3248096512158487
H -2.3064180556660974 -1.1221217127440561 -1.6715518528142748
H -3.869912441007958 -2.5226283308371347 -2.825268710963315
H -5.118389393987893 -3.563768822148069 -1.8296218316489958
H -1.407700660365682 0.8660574301635776 -1.4671955211421288
H -0.284908235958304 -0.5661662819243866 -1.3728986744187512
H 2.554018248115351 1.5947817833746818 -0.39560447504771346
H 1.3924463462557075 -1.3397205242306751 -0.5098932730006263
H 4.505777496627924 1.0153549407020546 -0.2560111484858488
H 7.33628815983396 -1.4847071376571 0.006657272011005309
H 6.809965121898772 -1.145507943256057 1.8311386129389657
