19

C 3.9041515733263976 1.2457223681714644 0.18060102034282013
C 3.4189733925495327 0.016575996242964856 0.10903401290372806
C 2.000339006601707 -0.2620653532252899 -0.05779662990515136
C 1.4382066151192139 -1.4372982086192758 -0.13752877947250972
C -0.0027878606373461126 -1.270532620826654 -0.3012327301308576
C -0.32444973478395045 0.011592987618112255 -0.32184759181541606
C -1.6597922854273486 0.6373995532161127 -0.467515096633392
C -2.706592023371983 -0.3826746040859313 -0.6010408380402125
C -3.985650105898928 -0.13130022288802595 -0.2657331646760787
C 0.9393310305867473 0.7594074075132242 -0.16683175561150335
H 3.1910510986619123 2.0702985468085657 0.10908823494795325
H 4.15896767003412 -0.7827189048064473 0.1839664349626642
H 1.9052281168810343 -2.408597410289719 -0.0962072017107613
H -0.7432488933823144 -2.0536904140160104 -0.39646395705371074
H -1.7965320686950537 1.3073161225961583 0.4108346362169289
H -1.6102792431335498 1.3129100873466564 -1.3557098468707764
H -4.729804813537829 -0.9073907554681439 -0.3776057335260362
H -4.294216866086585 0.8184970843448501 0.11106395298270559
H 0.8971053911944653 1.45654834036727 0.6706267497563557
