15

C -1.991066679708118 -1.6778707691634982 -0.7753763436508985
C -1.6359920313435672 -0.43274594368023583 -1.0484363023932557
C -0.4456808803114074 0.17748907150166596 -0.3941465957307769
C -0.9497208457861468 0.968184686089839 0.7935775230868268
C 0.46340855028632794 -0.9102364948465611 -0.012154572500032025
C 1.750532797070915 -0.6478534749552028 0.08165698021871831
C 2.908955584132965 -0.08975826118819158 0.3027281623193234
H -1.4197566035083287 -2.245244305731689 -0.08243599326891583
H -2.245913929349316 0.13594492489933127 -1.771906919749385
H 0.07331895586250775 0.895252061210524 -1.0750823099563254
H -1.9090283381032875 0.5229417824620197 1.1512409285321328
H -0.22827975206602524 1.0045368311729792 1.616959534186653
H -1.1542409738578787 2.020480186585261 0.47320694010594616
H 3.5699925585796226 0.03204187270127984 -0.5354561301921048
H 3.2134715881017257 0.24683783294245965 1.2756250989920608
