16

C 1.772543131724792 0.4961888085466023 1.4131748565502507
C 1.67377215062986 0.3785880374146747 0.11105432503442611
C 0.4087523123090013 0.035293697742454444 -0.5649393765320885
C 0.1978765446505755 -1.407419203500933 -0.7336556560499079
C -1.0969240854600497 -1.657746604549021 -0.6314794143476806
C -1.8776533955886483 -0.40791019027440856 -0.3834821208228105
C -0.7881338212404154 0.5005228667054299 0.14493639345122863
C -0.991619449227031 1.4505466249208216 1.0337243287729265
H 2.6739911054488124 0.7428297471091724 1.922561359362517
H 2.553566371721269 0.5387824993143994 -0.500088627227661
H 0.3878967372180283 0.5366443520002185 -1.575553703517589
H 0.9697566077760972 -2.1904412434386824 -0.9178134537901548
H -1.5632100077662527 -2.6559292698096946 -0.715481767639126
H -2.199663932480309 -0.05596001030511168 -1.4059453730205407
H -1.9643200769198883 1.645727089870232 1.44932045703486
H -0.1566301927958461 2.0502827982538157 1.3536677727413393
