15

C -2.698069337430278 -0.6618246180636148 -0.360624237736051
C -1.6415165712804327 0.09128670154572754 -0.08714171066719972
C -1.864891850707223 1.368427053425675 0.6482129102799208
C -0.29236515222221177 -0.3314067360279117 -0.5024084484613734
C 0.5503564052040867 -0.47016192016040304 0.6798969875790841
C 1.827689425170383 -0.20145990377473477 0.5225868352581721
C 3.0869080073383546 0.08598859956915933 0.2697075665291296
H -2.5921292156168616 -1.6009194229725827 -0.8934789112704938
H -2.556306545516073 1.2450211168778655 1.492751448906531
H -0.8792785994492036 1.7323234623295392 1.0102697267323077
H 0.10622476916760232 0.4390228201500309 -1.186748982790145
H -0.3483922468343403 -1.3055376446292015 -1.0221454018895497
H 0.2915671041832864 -0.7581550057292489 1.6622613689857786
H 3.338977612818766 1.1053241077374492 0.41179455217320593
H 3.671226195174219 -0.7379286102776959 -0.04035518848289491
