27

C 3.263329324767568 3.267364596389578 0.37189992697776786
C 3.1929411880196623 2.0089074784621825 0.017821559552408196
C 3.1718237535292806 0.6883772568029878 -0.08229643777314384
C 1.9982815644648326 -0.02582827942904169 0.43780001630672777
C 0.9652252318788453 -0.13578306067863155 -0.6760975295975918
C -0.24536442107102133 -0.8293802951423 -0.29239524180395576
C -0.2255555275791878 -2.261188349343556 -0.09340629018476376
C 0.7544856732892136 -3.087333571943229 -0.21462397059917585
C -1.437812396772419 -0.18421238389002598 -0.11515126033443643
C -1.5204650677685665 1.232548885951918 -0.3065698104250392
C -2.4811578757370283 2.08635444049989 -0.21996132976517596
C -2.5421506613246487 -1.032199746103132 0.26451443898722665
C -3.7770762590585174 -0.848257242769586 0.5207247348533158
H 3.677706655290236 3.4943540152500185 1.3261826850389253
H 4.026910469714284 0.21979619683620136 -0.5426553810261644
H 1.5273416816693652 0.5412480718042965 1.2724973050497916
H 2.2654786267487452 -1.0226379997047377 0.764293701797794
H 0.9091594610066003 0.8196251799038862 -1.182481906379754
H 1.486571174901786 -0.8321228236154898 -1.4489781077506148
H 0.5206159523020641 -4.142469357510682 -0.006379758935989575
H 1.7670728499608617 -2.9146587299191826 -0.49557500387835324
H -0.5308362197571681 1.7116282725576801 -0.5807756579594429
H -3.4774491435418615 1.864252387813123 0.03376325035187454
H -2.2957632059820154 3.16956666167664 -0.4215356570823273
H -2.240320508129884 -2.128312819804661 0.35816260303035424
H -4.317270208187139 0.053274922538533866 0.5107559463063265
H -4.435722112633543 -1.7129137066325497 0.8004671752432795
