17

C 3.2100242503041874 0.5247636740815511 -0.6609544951620752
C 2.782544637622494 -0.6781295765092265 -0.33854281033394884
C 1.3247112448987235 -0.9150052598078373 -0.33904006553598626
C 0.6788760840393377 0.1861817202614642 0.4825559373293172
C -0.7838286896406337 -0.08418310025430603 0.4597038623981584
C -1.6987828552786712 0.8467859411003155 0.2694565968376247
C -3.1393107087759002 0.467526761263895 0.2650257708555103
H 4.228087780559048 0.8475526413028267 -0.705389640079592
H 3.437505709601343 -1.4829457740371272 -0.07899700550426714
H 1.048334822395015 -1.8895521527789316 0.11019682418998006
H 0.8992316901359187 -0.8199266703921224 -1.3733968844951008
H 0.9482737062281849 1.183310669307292 0.13072564680761395
H -1.0678812456988063 -1.1200182342741056 0.6125703577632717
H -1.4026363842220746 1.8785767896017722 0.1178206225904681
H -3.7847271575515697 1.373056667001299 0.20178124147292575
H -3.2938770311100356 -0.17710376116576124 -0.6272347134376446
H -3.3865458535065542 -0.14089033470099122 1.1658989507716937
