13

C -3.4553482295352076 0.26956163044615233 -0.2583173742952454
C -2.4255894612294018 -0.5242665317743306 -0.4883512167138813
C -1.197450561649781 -0.975110836498143 -0.6990187443454928
C -0.31717805966437096 -1.198914795515975 0.40601814495738325
C 0.5129865426435005 -0.21493733716827354 0.6737559285948406
C 1.3755901797134384 0.7775114372636097 0.8160502470920509
C 2.5994190481160913 0.6600185705311522 0.03632150391812063
H -3.32764634507097 1.3426183492734292 -0.14662151189817826
H -0.965229104880263 -1.1386578561658167 -1.740627230650592
H -0.2151446751904754 -2.025933687270956 1.051040560082941
H 1.0447860478079083 1.5208850974029975 1.4831966723364152
H 3.128893632597315 1.6247387148336414 -0.01419257078583747
H 3.241910986342248 -0.1175127553575491 0.5107513486873232
