12

C 2.2426142518207572 0.05623220929365821 -0.9302267118968616
C 1.6572136203693633 0.777665256761645 -0.0005139394747909459
C 0.7879418577619137 0.14414956539748572 1.022138439145103
C -0.5111837880091188 -0.16277666497247503 0.3667884332741899
C -1.358900523080006 -0.9904821978766674 -0.26781395591861207
C -1.8284831441650156 0.4067430245934172 -0.0072048868546996
H 2.0865883464993136 -1.0082801259447325 -0.9462755963087904
H 1.772023628391213 1.8663873076485225 0.07541733413478977
H 1.2491299589683393 -0.7595381462426808 1.4606071099091547
H -1.6322861642632662 -1.9411371240814335 -0.6980466364007928
H -2.570161589926684 0.5249561670019226 0.8144669838035172
H -1.8944964543667684 1.0860807284213525 -0.8893365734121995
