19

C -4.0270206881180695 0.30747340406405005 1.5959237232700336
C -3.6156000524139333 -0.043892437127808964 0.40216744306899005
C -2.6052075958514465 -1.1045355529517076 0.22653065708812287
C -1.5534548298769408 -0.671759835268946 -0.7135949297833641
C -0.4487156608060291 -0.08067221385400046 -0.3164307756410801
C 0.6055423680534774 0.36143875747697 -1.1745330027000807
C 1.8210514120493912 0.004217049189224177 -0.8065412633500151
C 3.002052288855496 -0.3096319113279182 -0.31488753472864167
C 3.577608504555473 0.6583330232671712 0.6123413897281095
H -3.70512300822635 -0.10120155662747304 2.5263819998712678
H -4.052583154026882 0.4818064067898216 -0.4553625116182782
H -2.1244691645322 -1.3004686555729628 1.196916900154867
H -1.6929811587798893 -0.8448852289474443 -1.762674419415912
H -0.33139963319879506 0.0832768834918433 0.7514842856256722
H 0.5899376994191624 0.9299631619193433 -2.0598434739672733
H 3.368506240991665 -1.2316390864262168 -0.666549585261746
H 3.926582635672882 1.5455057744095206 0.015334040625190433
H 2.847007349827737 1.074160981155073 1.348108795495687
H 4.41826644639733 0.24251103634044083 1.223838966219431
