22

C -4.076268030564753 1.3044244182767832 0.9649160039728407
C -3.5125835660624674 0.39057139543295305 -0.04855068169969389
C -3.843940131335936 -1.0497405295981848 0.01187893716677034
C -2.7359628599931924 0.8437817044237567 -0.981401870968866
C -2.1180016693729447 0.07412794406331252 -2.029597332195752
C -0.8215016705054686 0.27319339389393227 -2.226890024545738
C 0.494711342206916 0.2172276787343898 -2.2418807772331433
C 1.1586551679022494 -0.615455712992741 -1.248934448238183
C 1.9125657867208423 -0.16680335354308876 -0.29399763672615004
C 2.734792632573967 0.4093173257939039 0.5343758029480682
C 3.638998244802718 0.6660028366854476 1.4278689365784387
C 4.954320484683717 -0.01564198378210222 1.514615426834412
H -4.24931632834408 0.8466618176322315 1.93936580481327
H -3.835129273247997 -1.3353640946355023 1.1006040687537284
H -4.931583424894712 -1.128568151431107 -0.27610232269885177
H -2.5060719070429744 1.921857357318381 -1.0021423958079112
H -2.5787065717414692 -0.6481158233925117 -2.6748870778310727
H 1.0096558962516347 -1.6826148088991222 -1.316625071265267
H 3.4238708483246145 1.4278554856475616 2.1614031404762475
H 5.322624070184399 -0.3209426299237545 0.497067962740432
H 5.688671221899366 0.6460864663439191 2.0196921922101074
H 4.870199737556124 -0.9246657817899265 2.1692213627161667
