10

C 2.983385368656522 0.5554223940560276 0.1188878866008461
C 1.7376726321518787 0.4658465817964344 0.48935270138120707
C 0.5554013819097443 0.03253647552668706 0.8862289733303069
C -0.46382096450037846 -0.1396504253853316 -0.16985028276415853
C -1.729818345805886 0.6059090118274676 0.10315289511742674
C -1.7378542262743524 -0.775697843633557 0.2969435792774809
H 3.513887546161936 -0.26023573891862245 -0.35602640448134154
H -0.18600039834585672 -0.3755913853699921 -1.198058093619443
H -2.318637351552995 1.5109004968172195 0.15280091563459633
H -2.3542156424005776 -1.6194395667163268 0.5970320014770073
