21

C -4.10934313345092 1.864574527937278 0.7273619544933048
C -3.7069932698992303 0.6924180049968923 0.2657556170215546
C -3.178631698558655 -0.3455293579470093 -0.3071351950767529
C -2.0406213162983047 -0.9946622256650809 0.30944388604951123
C -0.8049900715750232 -0.8166341675952548 -0.13647241377254798
C 0.29050885088001216 -1.50207345726127 0.5335769043011026
C 1.528377715735305 -1.3548857837212607 0.12621159452958514
C 1.8296848259784788 -0.4852653748984234 -1.0263647874058364
C 1.9455074045355638 0.955792603169482 -0.5439473643132776
C 3.077831641900095 1.0011411007821867 0.47763002498214757
H -3.4979833163650484 2.7189243312992653 0.40259932873657917
H -3.5851693489269723 -0.7084268779100075 -1.224722259987659
H -2.2497992476280873 -1.6374787698018454 1.1589700594900285
H -0.6517081541339141 -0.17032059527335766 -0.9804325803773466
H 0.11466661406523779 -2.141108939569266 1.3724216916077392
H 1.1278679148400008 -0.6056722227743423 -1.859236839585868
H 2.858514706225283 -0.7802239589562587 -1.3797327047752235
H 1.004631212208387 1.3115527346896232 -0.08373582633259344
H 2.6746935719579574 0.914722360494597 1.5065229506463769
H 3.770291922580991 0.12795931750071426 0.3353317833222028
H 3.602663175928797 1.9551967505032484 0.32595417644692376
