19

C -2.9309080659569977 -0.3438757043209483 -1.3588542973604822
C -2.225421017187906 0.23651553418620389 -0.3995750674123889
C -2.514038211963876 0.011760638276850907 1.0356799872481233
C -1.1159440961523555 1.1361503405858178 -0.7829174107087045
C -0.32481093957004575 0.507010042023132 -1.8274854668734544
C 0.6775809282285962 -0.24302925066003953 -1.4178876905828772
C 1.7052598981589007 -0.8814181955921943 -0.9252510760752902
C 2.893489974565404 -0.10921861392917061 -0.7272442788534781
C 3.399709047254534 -0.051020851675660145 0.4951167478634371
C 3.7271915922844094 -0.16995360961070902 1.7445148313287926
H -3.7513148281689817 -1.0092208008760468 -1.0936149387710128
H -1.592958515229094 -0.1688148741889718 1.6187646979850854
H -3.02993967959842 0.876315296883717 1.50498533206049
H -3.171395386379268 -0.8782121158308409 1.1906075218479333
H -0.5611715127673855 1.5496534101194746 0.056943044979463474
H -0.41377708194919727 0.547551330293611 -2.8795855866988442
H 1.51611586735567 -1.8997191824807342 -0.7349552981404974
H 3.3298998634325367 0.5257419827369917 2.4512054222050845
H 4.382432163643119 -0.9568346660025472 2.049553525958259
