24

C -2.840364990619809 1.3860895154203188 -0.9548682511199552
C -1.5958266059191113 0.9268258882362488 -0.8961782281412191
C -1.2077894914777207 0.16765487797395578 0.3249864384152996
C -2.384019607135823 -0.5927411465795692 0.818319151428266
C 0.026576507354271077 -0.655166569548258 0.10776656140897503
C -0.11065311220558458 -1.6766104698614228 -0.9829805835387032
C 1.2224802177953793 0.17020434047504812 -0.189830812922429
C 2.2399134210718823 0.23920624993569825 0.6430304916030234
C 3.411292197935134 1.0742736941251456 0.3058614461690616
H -3.2267000580875136 1.951076822589968 -1.797969926286922
H -0.9467019798293362 1.130211907230246 -1.7305274382054159
H -0.9769241324406086 0.946099367686856 1.099432881113142
H -2.3770637342145817 -0.7331066029451598 1.9385958302312645
H -2.5179757037264268 -1.5874598696485185 0.35914687525404415
H -3.3179247034685977 -0.024030917859009952 0.6015256672694146
H 0.22969626648924246 -1.2160104892771881 1.0476605923124456
H -0.35679601471217665 -1.2507055290655824 -1.9692628017230718
H 0.8799720347284631 -2.167801184975154 -1.0959372793052444
H -0.8088487317778223 -2.476703787058168 -0.6580677214859093
H 1.2666124372900571 0.7296406231276689 -1.108059570822151
H 2.2728565600625616 -0.29786559756868886 1.5950249246679644
H 3.319471418413247 1.5066570717620387 -0.718065391534667
H 3.4314572292459493 1.9486926088509335 0.9942418338183101
H 4.367260575228751 0.5015691969726812 0.3243336915806981
