18

C 4.193716215645927 -0.1024359498576643 -0.589479997552587
C 3.145054683994301 -1.0235195014370098 -0.168683931890019
C 2.0510072474136503 -0.4591780924211276 0.29227488321840506
C 0.9511913137588479 0.18123767962841897 0.6441085160223845
C 0.02335030807276915 0.4806357310081174 -0.4337788036368579
C -1.3404815128881478 0.9273689722366473 0.03348086660854122
C -2.038293081315097 -0.06074181085892337 0.856546528970757
C -3.205092927482445 -0.5561240667279306 0.48703716643373357
H 3.9982533526869095 0.3429356101335263 -1.5675536536065857
H 3.1139231502997564 -2.0776923907456775 -0.17251814894756826
H 0.9103760285591914 0.3849536555066556 1.6759461234530533
H -0.1018043602914404 -0.4602792057116087 -1.0453367154090198
H 0.423593031049848 1.2610901752893864 -1.094618322843162
H -1.2036344912790689 1.9172164191667609 0.5527949865039898
H -1.92450998200415 1.1724233981935699 -0.8850902417549278
H -1.6050106641478077 -0.40061969074702874 1.7842576463438238
H -3.649592284458414 -0.23367849186803463 -0.4251138022618762
H -3.742046027614624 -1.2935924407880983 1.0858699024241716
