14

C 3.571911622831784 0.5404596039034081 -0.06859123133983464
C 2.4433609036889 -0.11283247506330459 -0.026557172343394355
C 1.349303300595324 -0.8388381637988825 0.15664755755013798
C 0.27675119835622525 -0.20377384222459896 0.8652337451636272
C -0.8823520976578528 0.054187306435237406 0.2647568610520682
C -2.274624292555433 0.573567255383636 0.21178115934800307
C -1.7067008284124399 -0.03179448023800689 -1.0217338456024359
H 4.193487775462348 0.4803101693917797 0.8010292283887379
H 1.3858901778547585 -1.8197788609120038 -0.24367813849900538
H 0.332938710651808 0.10380658145216935 1.9152738082589438
H -3.051853099871601 -0.01979706032682692 0.7427441153363452
H -2.429545233019052 1.677683831251712 0.1519485166335092
H -1.955487335313078 -1.0437797301993872 -1.3560345630550992
H -1.2530808026116946 0.6405798649450829 -1.7970354451005888
