32

C -2.7608770579697257 0.5284607121771175 1.874754270643989
C -3.626661875177879 -0.3785831077787261 1.763021188772496
C -3.805933851977599 -1.3304665046883486 0.7167927446474619
C -3.1222458682273078 -1.4935099289876554 -0.38088118206184685
C -1.9778165313439844 -0.6341200479998158 -0.6804469780200537
C -2.4118017521068777 0.4536649091132657 -1.3352848394118537
C -2.716897996883101 1.5232995261574171 -2.0046069860280045
C -0.6629193001754602 -0.7674189382505321 -0.44580472107041946
C 0.7285489585071421 -0.9115983425432952 -0.19989178227430493
C 1.366061472622455 -2.130713426499204 0.33959950852594556
C 1.597645471997466 0.10250450850465156 -0.49747780011746195
C 3.030241288593964 -0.0681095841830121 -0.2347037322253793
C 3.5054656988903043 1.0376781957571164 0.7254130829768619
C 3.281103400393765 2.3949418722782574 0.12294822770579174
H -1.947372442771402 0.9303128987574834 1.3786848470047195
H -4.361747156630005 -0.45120318576789425 2.599927312145167
H -4.6533626343852195 -2.060773969176815 0.819677024206913
H -3.377404968702763 -2.2570425593523513 -1.1173234911709768
H -2.9258929862538112 2.3780419558513177 -1.3928413801460593
H -2.725635470660414 1.4421821758412476 -3.049354398646644
H -0.5519601399104156 -1.7624189425326084 -1.3928687410292864
H -0.9036658564787721 -1.8726700132163407 0.3862487589353609
H 1.7121883522207721 -1.9705874993047616 1.3584176683939906
H 2.1297951348973423 -2.580464255921503 -0.2904828057661769
H 1.2219731784092192 1.0176896246634968 -0.9202376976642244
H 3.6575332035279913 -0.07579789248378578 -1.147613505403312
H 3.2038161277679102 -1.0156984772338622 0.3401709301604227
H 4.55538926688838 0.8713367847667276 0.9932449055337392
H 2.9005443013738668 0.9190840768044058 1.652604833974881
H 3.8424827464813975 3.151290800531891 0.7001796966536047
H 2.1982968418902504 2.6275964051701437 0.24012419466806076
H 3.601110444982576 2.383092229700836 -0.9219891531062623
