21

C -2.879921309921596 1.0134095741910722 -1.180948336845697
C -3.5237099695553105 0.36479809923309786 0.03448279876578586
C -2.6256823496795367 -0.7867209540986884 0.4707067277276545
C -1.3045639697306857 -0.18328028050642692 0.7968538307817385
C -0.2049345134037511 -0.534901849343318 0.16139371616890932
C 1.0563024407430033 0.08406773289347803 0.5182930971406451
C 2.172841330419689 -0.24542482969454207 -0.09767441706917293
C 3.4473497494421417 0.36090757521840183 0.24264459285447934
C 4.523685122308441 -0.014588385724939958 -0.41256789220061896
H -2.11369525728344 1.7491702553914636 -0.8618963983210796
H -4.54703251496172 0.015291618136947252 -0.21501189425448397
H -3.5763958754298617 1.0577172097799317 0.8992126125073958
H -2.5078480372798073 -1.537222489796395 -0.3357128408282938
H -3.002877596502956 -1.2361365105056465 1.4145957703837886
H -1.3041570079463876 0.5611111132645432 1.5873913336853096
H -0.2678989405085649 -1.277085142047451 -0.6118844991919192
H 1.1140409979753405 0.8312767998267676 1.2981465529856573
H 2.1397185901865834 -0.9823101955813289 -0.8724199280525969
H 3.478766057516643 1.1128437458375113 1.033717742452779
H 4.436281145566785 -0.7552451085293024 -1.17834884217457
H 5.48973190804581 0.4023220220548464 -0.19992972161197575
