14

C -1.3708157517629556 -2.147516051838109 0.7477738201994008
C -1.5171958232830183 -1.0582414525362074 0.004021539075553994
C -0.6236068062724783 0.08145660859951674 0.07543168833418944
C -0.8506684139694556 1.112147881535582 -0.7002448875552278
C 0.5377592720054011 0.13315391169639237 0.9885119629682081
C 1.8446752537218976 0.28569808193010165 0.26675903416104824
H -0.5991198264926496 -2.297579513901466 1.4602146655469848
H -2.35347625447984 -1.0548956839646382 -0.6765866506519654
H -1.6948232692191652 1.081427862529779 -1.3678251276870255
H -0.21470991915414825 1.9896104764902114 -0.6874918996022952
H 0.37825600298211814 0.9047173372726999 1.7701034684291377
H 2.542365451154352 0.8077014416707589 0.9399948894700116
H 2.2499644350271457 -0.7177268239032618 0.06723913022751449
H 1.6713956497438671 0.8800459244193903 -0.6420740351203358
