16

C 4.355686951932787 0.8342926707582446 -0.05186878424394841
C 3.5016179295164895 -0.12586254526845486 -0.2903613029830481
C 2.6081162359654324 -1.015701527421808 -0.6867156660897495
C 1.2873409789250339 -0.8543024291145737 -0.14199908239369644
C 0.3104409662384503 -0.3047815690084113 -0.7980517039886978
C -1.0067740068985 -0.1572486346607941 -0.22173597137548673
C -2.0138629272390416 0.39499417628181166 -0.8629485790185583
C -3.345182989942565 0.5229081449968704 -0.22830205530244788
H 4.27258302253206 1.7186546200074222 -0.6714615788831043
H 2.956934873263494 -1.7531491736425449 -1.3632168335714072
H 1.113780565583407 -1.2126808079685338 0.8640356532236464
H -1.1806341989910023 -0.5148354647370605 0.7825870884527415
H -1.870126187335232 0.7607311191710968 -1.8658343915617601
H -3.4230261198603027 -0.24100521554909815 0.5446988993157509
H -4.109702061023398 0.4336655957301634 -1.027563293253081
H -3.4571930326670417 1.5143210404256842 0.3005248046287876
