13

C 0.1933515990737698 -1.2683600668135258 0.23973119025180367
C 1.3193798177217329 -0.293006857752541 0.011211806479505204
C 0.7261668618390223 1.0412720306430352 -0.2742161830968302
C -0.7411397174866685 0.7676396645858647 -0.4474265271704391
C -1.0162873581447316 -0.36869461650151425 0.5001142129061552
H -0.04436081233281471 -1.8820620618631678 -0.6418126491097884
H 1.9489914036688223 -0.5813336218256897 -0.8693908814538049
H 1.9604805576811206 -0.3212800226299882 0.9184079410286591
H 0.9187058250646902 1.814014497758049 0.4776415948459987
H -1.3461088734604134 1.6591137241276614 -0.27176700330268305
H -0.9393128733115281 0.40438036273334044 -1.4712176708026523
H -1.9370566778156943 -0.9284044755181406 0.26481853252386367
H -1.0428097524973012 -0.04327855694339093 1.563905636900216
