9

C 2.769825450549114 -0.1620480639418055 -0.35300527229716866
C 1.499173729200576 -0.3883411989070194 -0.21811200358918792
C 0.24807701708768587 -0.5389741696359264 0.09908972873002805
C -0.957145906415747 -0.47952568434926746 0.5889805462323026
C -1.9643240659767502 0.3573618518097211 -0.12152399694508824
H 3.238890590285297 0.7976401844263583 -0.13542962818576426
H -1.2953823194137803 -0.9886380178564415 1.4744626181374991
H -1.5251166770518045 1.3898741221719806 -0.13783867552807216
H -2.0139978182645923 0.012650976282391561 -1.1966233165545526
