24

C 0.3937046150850644 3.245252469122523 -1.236219766671688
C 0.4367914345944361 2.2218049604527637 -0.39429635489559284
C 0.7534944545119875 1.133867398990353 0.24095020050829588
C 0.2929406105912916 -0.1615502205914509 -0.2615766574784891
C 1.158712448187378 -1.0127893216269626 -0.7930213855573365
C 2.5656713057123226 -0.7500605265492216 -0.9173208145898538
C 3.2300080832543947 -0.6023057611508986 0.19102967482188524
C 3.834484120685995 -0.4681262023585277 1.3598331601063556
C -1.1002263581900165 -0.5419063770113618 -0.19245270700312445
C -1.5370763332056898 -1.850280229916494 -0.7048492793807228
C -1.9758954831787632 0.28367391286813753 0.32916576083860416
C -3.3985614060618876 -0.02502710041267593 0.4355479784054179
C -4.271817070459083 0.8079255772511401 0.9600721946017903
H 1.1522987074629447 3.316208233644823 -2.0209167739383944
H 1.3515399133613761 1.2031760607929534 1.1258578866420859
H 0.7982846869969339 -1.9549327025301628 -1.1541251258512335
H 3.154450909972739 -0.6570886460731258 -1.8052429604142224
H 4.209871888235052 -1.369358815373956 1.76110190147869
H 3.8542104146896707 0.5225574692174055 1.724587644264865
H -1.9692165785021065 -1.819250684896791 -1.7101238519466877
H -2.236549198401922 -2.369720172687983 -0.038365795685279064
H -1.6586516409824392 1.2608323559389414 0.7134109479259608
H -3.729019634099244 -0.9826893028011456 0.06233372181213735
H -5.309449890223414 0.5697876267283998 1.031830593874055
