21

C -1.921949236280584 3.1403195733287306 0.881255174077512
C -1.8541073571451427 1.8963485074030264 0.46035501909592497
C -0.6946407003781973 1.2349675146713983 -0.08825207320411259
C -0.7874097793970325 -0.15590434201889078 -0.5100943407425766
C -1.93886819213408 -0.8221562736553504 -0.392095621230171
C -2.101316729376816 -2.221053934550523 -0.7963769834190032
C 0.4542892047848935 1.8599767199217396 -0.21884596755180802
C 1.6398371175852053 1.198255685308797 -0.7751024061773162
C 2.207913756300952 0.2039038194648928 -0.16892105303930532
C 2.6387998580930896 -0.8026504965058687 0.5361992096670518
C 3.2313463044746493 -1.8789508127388472 0.9718411600675906
H -1.1004578342125244 3.8037653266008755 0.8577399807173535
H -2.809192288139463 1.3469168594269316 0.5592623702647215
H 0.04213485490397292 -0.7047165859411838 -0.926966636877148
H -1.2481041558872792 -2.8769356947831013 -0.48624938529589634
H -2.2586927582431886 -2.348047797654748 -1.8987229107841324
H -3.004289208048042 -2.616188094327933 -0.2532721994504838
H 0.5054816365196905 2.8945455442590546 0.10009814804333637
H 2.0280577589013173 1.5641170578921086 -1.7079220356528293
H 2.845240699217725 -2.8702078393398476 0.7325703917947757
H 4.125927048460916 -1.846304736761314 1.5858719881616135
