29

C -4.854592913954576 -1.0030716917906595 0.9339844921075177
C -3.537347893606711 -0.8565031417947995 0.8320966109169088
C -2.31264584502998 -1.0417739673346291 0.4192536634448639
C -1.4243593077028653 -2.078598358623508 0.9162962702120336
C -0.1794940995218219 -2.2050012220279767 0.4344389877620971
C 0.34308466101795 -1.312709105362786 -0.6075924729957082
C 1.6326965581668005 -0.7483503972658875 -0.1240999573033372
C 2.1667753454898406 0.2909200818451685 -0.7282506517407077
C 3.4140385337725108 0.834864936322021 -0.2587376134888315
C 3.936576940420841 1.873487630708034 -0.8715138769553525
C 4.1078284156779095 0.23993839295317967 0.8984329120673974
C -0.5710075842903591 -0.28459974886923445 -1.084582887930931
C -1.7926145391458865 -0.1636390482334491 -0.6089845218210151
C -2.6736955217257434 0.9333451406363642 -1.162904555139717
C -3.0851087729706186 1.8736356968574404 -0.04579552884888371
H -5.370683645927352 -1.7320901365810346 0.2875872520817778
H -1.8044240016240638 -2.7426317535141145 1.68753184569754
H 0.45682317092402747 -2.9829230070653 0.8217439023171897
H 2.1571137687871476 -1.1681932355225986 0.7209312411902753
H 4.866603732698269 2.3169815445385353 -0.5592644600362847
H 3.4535467208159236 2.3388687651268425 -1.7283233966232123
H 5.155117364293261 0.6006113554773904 0.9354072345312817
H 3.5573281748455328 0.45048101840967864 1.8431087207262893
H 4.1729076206808555 -0.8745223414540159 0.8345140153262839
H -0.20027982734571628 0.40309224218718237 -1.8724012742396283
H -3.5906435742353615 0.5081386881415214 -1.597942070358923
H -2.1386704028069525 1.495192385189612 -1.9359687214285008
H -3.6651596421696593 2.68982356925468 -0.5280341653066785
H -2.2197134355391097 2.345225707799558 0.4371101814722445
