26

C -1.0358697516484756 -0.6939453133048904 3.4926109841309145
C -0.34226492673149045 -0.37325193502426185 2.4112159742667605
C 0.22475844271546505 0.15750983050862424 1.3692307037824154
C 0.0006388724964940561 -0.438231498052151 0.06582717065446222
C -0.05271970127334984 0.1525681324232035 -1.0999334827471587
C 0.09107116936742218 1.5769307919686613 -1.4719739670304217
C 0.2870452670101543 2.5798350580311062 -0.7582983806447432
C 0.5004563353874599 3.4955520205272372 0.27299597994095015
C -0.30872921877604365 -0.9220360392008157 -2.1598301891939298
C 0.41837046313174464 -2.0959873280966885 -1.4914903244823559
C -0.2228445357037468 -1.9175514485775293 -0.10615965056237528
C 0.41269214987643527 -2.770611520321416 0.9371196307266084
H -2.1124248918748365 -0.39656594453276905 3.464062895621158
H 0.8593710207426238 1.0108421393296836 1.4481447446282627
H -0.018043433367241346 1.684486515650504 -2.592411652437427
H 0.3676323951480424 3.4956582864273207 -1.7699697011241196
H 1.5888181137916797 3.725615969837776 0.41073202835088546
H 0.15832477809313295 3.1768524125423094 1.31501205115568
H -0.0005512527391648581 4.51715685593366 0.16093272274576775
H -1.3885999567996754 -1.1614683510116357 -2.1573326163932096
H 0.1470809048201982 -0.659954387268292 -3.112942749076383
H 0.07072600067029662 -3.063908246318364 -1.8935891606856876
H -1.2999359542570132 -2.1372916315987225 -0.26915724949159503
H 1.362079635787056 -2.31431980813868 1.2319528798208566
H -0.26814008307053805 -2.8354388530341414 1.7966722079418462
H 0.5610581581937553 -3.7924457099793525 0.506579152084421
