9

C 1.858169375974814 -0.5036912692216264 -0.3064233172167111
C 0.5649031276393677 -0.3104160271755772 -0.1447477076229329
C -0.48114733821189076 0.7137229911256979 0.23301769249873133
C -0.8734231323363058 -0.6247272115701551 -0.11557123492401504
H 2.5525240401990907 0.3024294962652753 -0.13425552604532842
H -0.4935569933495061 1.0272931476473328 1.295706698753326
H -0.5408977495224813 1.5867308228255788 -0.45826624108694103
H -1.2637854770914523 -1.2786670979812282 0.7186346845564305
H -1.3227858533016115 -0.91267485191529 -1.088095048912589
