15

C -0.049090887150344396 2.009004798969003 -0.1421526195620089
C -0.7508008122538127 0.9102137643929998 -0.40328423702748695
C -0.664526594664783 -0.2125797324642804 0.530304679539056
C -1.745161153700649 -1.1987707110501071 0.3207759081196941
C -2.628830626033499 -2.002367941452051 0.17082921583765442
C 0.6306015479153461 -0.8819324520169796 0.48576464787697493
C 1.624452118134482 -0.2095809977305463 -0.056548891894963135
C 2.544638472271841 0.5410880229021671 -0.5969829829407145
H -0.04430219962147622 2.8806290544824438 -0.7596538183904751
H -1.3488563283854915 0.9063059384089297 -1.2941655425980183
H -0.7880949429840667 0.20606110464517652 1.5712037834495516
H -3.4087028455083344 -2.701357654706083 0.02260353606903294
H 0.908122282464874 -1.8429230624822277 0.8264944825280675
H 2.642056424901202 0.43126655955460197 -1.6533547351400832
H 3.078495544614959 1.1649433085471426 0.07555115556679176
