44

C -9.712164888744269 -0.0042215347756402065 0.39280968154605145
C -8.69108888376631 0.5964113187048338 -0.17191882570972583
C -8.924182649930938 1.6497592648920976 -1.1851609376977905
C -7.324472958734754 0.22817344826169625 0.19625633253637856
C -7.189632286354996 -0.7135269814833649 1.1003936419590221
C -6.221750561836476 0.8946500976106401 -0.43838976265079116
C -4.951607212444853 0.6984372530761546 -0.24972310476293322
C -4.327363730656656 -0.24353179333715386 0.6497316180617844
C -3.0164925660329645 -0.3564648469705479 0.7574200589439919
C -2.07810350973623 0.4336258845700446 0.0029169608665732937
C -0.7812355264555834 0.2650452606197157 0.16166386182766365
C -0.16965490272348324 -0.6780501963537265 1.0595910473569472
C 1.1790741537367935 -0.7427173713546785 1.1176437545333577
C 1.9272466333520266 0.09625322911085615 0.3152790185472188
C 3.0952085064062813 0.3875941795190571 0.033496280421019736
C 4.325288696709676 -0.1588869929617325 0.5499356887431813
C 5.548421964046184 0.25197222033547745 0.15383851221825062
C 6.529363650718662 -0.5046883507881392 0.8715723040195791
C 7.841097416779919 -0.3986959780800592 0.76561755033095
C 8.45557171848582 0.5399485195963071 -0.13169766612190012
C 8.726497030586684 0.08808342128843621 -1.3310834729548966
C 8.961963684741932 -0.4188737116789728 -2.517543087681457
C 5.807367022377472 -1.4111967511777999 1.7383532597265625
C 4.490799577099017 -1.2058244113995293 1.547304865117408
H -10.725545055339262 0.25540950424382064 0.13225228191887964
H -9.460219518858768 1.2656298316549766 -2.0825311048130577
H -9.56065358955342 2.431105022374795 -0.7009849958059924
H -8.007726022222123 -1.2158189512718667 1.5720791248489976
H -6.491059577141537 1.6770073104724215 -1.1851557184678363
H -4.295518860535575 1.3554189190889194 -0.8759793347714894
H -4.909244418532659 -0.9022365743751416 1.2784781766562248
H -2.645208715245652 -1.1090786948730043 1.4759142334335598
H -2.3873571655832753 1.183863902279472 -0.7115134206235999
H -0.10350425965061365 0.8987867321703527 -0.4432319103109856
H -0.7284983953899886 -1.3357516005338534 1.6884102948677209
H 1.5795748200224526 -1.4776810711204067 1.8176549471058019
H 3.2073881626240914 1.2074497636838808 -0.7486223152411899
H 5.71905045530492 1.030212798246972 -0.5888596151887562
H 8.49495674075118 -1.0283262875995154 1.3634667708286377
H 8.721952433289308 1.5484765651671444 0.035837943391364174
H 9.911976846448633 -0.8680279239211006 -2.6215683232391456
H 8.169633915121922 -0.3113087841713395 -3.2108245679205996
H 6.251038930177473 -2.124143507047006 2.4163890059718987
H 3.758812896680967 -1.7742621316937122 2.0915154621655403
