23

C 3.7564240876729027 1.0672971125394382 -0.7338100453529617
C 3.2372981555627858 -0.08343224498591317 -0.3795497460133261
C 2.582387787210521 -0.9584402386767809 -1.3817509318508496
C 1.126438902555976 -1.0104017751586845 -1.21998250382168
C 0.4626583821546266 -0.3114439093456441 -0.30135700968357537
C -0.9922597368447479 -0.4616606832814799 -0.2546268056359733
C -1.6684209864883923 -1.2656408126393044 -1.091249245898715
C -3.0980111836382185 -1.2010028770815193 -0.7972109990246207
C -3.215243206764724 -0.26658387654575255 0.31313499048227356
C -1.9632996586778724 0.16190923122386863 0.6227804990791096
C -1.7673660369912445 1.111681544736803 1.7031945983741321
C -0.6753613163445958 1.610027354924765 2.118973885835916
H 4.245414722419768 1.7663537393931688 -0.1004030239303728
H 3.290296223517228 -0.391016176471061 0.6521975409095743
H 2.9857496337768636 -2.004483812502541 -1.339756428514139
H 2.789231502468688 -0.6002027644349861 -2.419234244762919
H 1.0641117752147582 0.2929261007726544 0.3133140635971657
H -1.2102941138556427 -1.8711798712749217 -1.8692000314660266
H -3.686110325220864 -0.8630728619830337 -1.6502153285919026
H -4.155507250883529 0.03313081017983944 0.8072200170970695
H -2.6788279684184295 1.455055544058414 2.2438434464511468
H 0.30379005992609454 1.4544235649966661 1.7874857499260366
H -0.7330994483519122 2.335756901555857 2.9762015527944423
