13

C 4.009107415792251 0.13188552583071503 0.20953290068376723
C 2.7502552502054924 0.40147651212339813 0.30321726495160756
C 1.5650463100095733 0.9466150606551592 0.37270377397748483
C 0.6233005299939905 0.6429843576407059 -0.6709139599896194
C -0.6275490200175043 0.5929032953097851 -0.2944270855393706
C -1.8582455619319698 0.4647397371362981 0.17373094453576393
C -2.2164941113125263 -0.864301389267298 0.6459138573557548
H 4.326196774518759 -0.45944573559431245 -0.6502557482429983
H 0.7815203543412792 0.45234705735339387 -1.693967179732241
H -2.4114036519243465 1.3600137720037948 0.13764787162168346
H -1.7983272199651512 -1.0730884275673687 1.6494554825390442
H -1.8212209586089545 -1.6218532679855304 -0.06850585729378846
H -3.3221861111010176 -0.9742764976387054 0.6175804729350431
