28

C -2.8226806256817287 -0.2324295427549207 -0.027010549353852723
C -2.0867620563841456 0.8866264770314526 -0.6479146960204714
C -2.6806492942460842 1.6482427239802975 -1.7385994285443243
C -3.877724013742015 1.337002358137589 -2.1715945840024653
C -0.8874613225750795 1.1847668702358953 -0.20105490636213214
C -0.295911805114453 0.4547208318634221 0.8580329719732777
C -0.13573090957121953 0.710868180310599 2.263046064283073
C 0.2178407474611103 -0.6885941587072777 0.41461761931178404
C 0.6350458942258747 -1.8672555153475487 0.14053016973494212
C 1.970693714821747 -2.0160263517726587 -0.35049287363768133
C 2.414626754948246 -3.2510393107102873 -0.6359393771490783
C 2.8995596553106977 -0.9705286484330147 -0.5751563548617601
C 2.65492782532661 0.2757530298758462 -0.36325197206088
C 2.4831746096655327 1.5850000987915893 -0.25418850300304496
H -2.9774894139986023 -1.0292700874349074 -0.7795967099784947
H -2.137197226947056 2.4606291844495236 -2.1837053697354403
H -4.332730333747679 1.9008348562606878 -2.9884058198894645
H -4.437747440785956 0.5136915336122566 -1.7261664657585343
H -0.359875129568162 2.003848795952405 -0.6622634169215526
H -0.7146458056550066 0.04325591676770307 2.9379531324878863
H -0.33234557161841616 1.7657641832207596 2.518718496901077
H 0.9458552859263651 0.5375662636877129 2.539031215211341
H -0.07150340319280858 -2.6466842726346114 0.30826762269507463
H 1.7532151864270449 -4.06262867281622 -0.4840801989715368
H 3.3965451813183005 -3.372159159632125 -0.9982363636116778
H 3.920498856342209 -1.1220144876509672 -0.9516861917783603
H 2.2113416376240247 2.0385963052372675 -1.1570484618312888
H 2.647129003430473 1.9114625984791298 0.732257814618405
