22

C -4.201964287859549 -1.7935816344856546 0.5089134129763505
C -2.9019891326002787 -1.6887217176294564 0.4881883742164592
C -2.2522546161131474 -0.44808021552156446 0.13591012892541846
C -2.962979196848292 0.7985623384293811 -0.22433264762211944
C -0.9105275241809251 -0.4652086100434434 0.14894781455930028
C -0.21488835498182454 0.751739080121948 -0.19656471063960682
C 1.0846624944096552 0.7909370421776396 -0.1995114372263748
C 1.896181926168437 -0.3650879443996926 0.13813944491870367
C 3.2132459098511625 -0.31488099381339657 0.1321298734545693
C 4.542398228968621 -0.9411295292079421 0.320736596541934
C 4.51749780116031 0.45672473775076405 -0.08148414337965533
H -4.8996433415329905 -1.0257632057648396 0.2828244928356639
H -2.3273883875990857 -2.590064495433562 0.7517670224996403
H -2.6960947400752193 1.1179402654306603 -1.2655164800232883
H -2.5777150358217806 1.5848430346363103 0.47875819752029497
H -4.041733728897206 0.7106967565675072 -0.09681163031349305
H -0.3460027702008316 -1.3609778849143912 0.4098070366757946
H -0.7741650743448086 1.6278375357270591 -0.4529614940364484
H 1.5854842396836377 1.709030481874109 -0.46032068423547684
H 4.884963906384259 -1.7568347346873776 -0.3156156958016556
H 4.77138830568549 0.6910876512467397 -1.1328081996951913
H 4.611523378744512 1.2863659275948862 0.6298047278491952
