31

C 2.6127005527008005 2.933949785839638 -2.906130702371073
C 2.140970888217093 3.429142808001227 -1.7810396024306148
C 2.653533465617662 3.0362028440693143 -0.5084520039494985
C 1.7549313216621933 2.637246831746401 0.3639812885161491
C 0.8202928821475883 2.15645888012404 1.143939422148372
C 0.5468395043767537 0.76097741725347 1.0196118452966347
C -0.7214924273752936 0.40905132308756026 1.1980428057767682
C -1.988434428220278 0.07268568795522079 1.0405965066599154
C -2.5495219452087023 0.1309147742300201 -0.2817332962976255
C -3.8266837345382054 -0.09772208426407564 -0.3711319039607928
C -5.09417349771027 -0.4613570536712837 -0.38751930232556464
C -5.368285820668516 -1.8843291322050473 -0.5247525632046312
C 1.4904165988298275 -0.27672681877254934 0.721482792242771
C 1.109554466235371 -1.5357581682760553 0.6334356926439221
C 1.9803281835722677 -2.639430053343417 0.3401663014569294
C 3.114243749693993 -2.6680969736545355 0.9953316139493077
C 4.233641206289709 -2.625554998434337 1.6933827380817552
H 2.249645280515773 3.2080395991039037 -3.880379100184804
H 1.3451128666851473 4.15037967507419 -1.8462297142700292
H 3.643674991907427 3.0091091037464617 -0.14209077545624532
H 0.38458447742980717 2.880911841996793 1.772281209801155
H -2.0747628711544914 0.3336642673153513 -1.2147333956218722
H -5.762922588441529 0.34538752031652264 -0.2954920831849575
H -4.53837166428661 -2.411021655140629 -1.0310803257131291
H -5.5017628635858795 -2.356915755202533 0.48966525744465106
H -6.291248678697303 -2.0757527503430397 -1.1164188893171267
H 2.532836816083535 -0.013165655328473327 0.5672301825456396
H 0.052878634546313856 -1.7811093236837734 0.7925132645257625
H 1.8442302073229175 -3.444505909302253 -0.33377673630291843
H 5.020457840253146 -2.096569797635669 1.225376988703052
H 4.186786585798214 -3.126106230602591 2.623922484798007
