21

C 4.24156470327173 0.6755204807171292 1.008540073486876
C 3.1180663340644243 -0.021823267002988776 0.9370017864272722
C 2.6720289106015884 -0.49471390836901713 -0.3395992823146225
C 1.6758174501679435 0.1700226868722997 -0.8713922165163294
C 0.5974435376808155 0.8103047653449468 -1.2813513207291845
C -0.6539036844895771 0.30738349543931415 -0.8517728813121994
C -0.8321542247317953 -0.9833294951154329 -0.8762951090662862
C -0.9523472552425711 -2.2944699225791423 -0.9304956246739879
C -1.8311603522132136 1.0486275944252557 -0.36224885723997535
C -2.3132428582650437 0.5743665814705807 0.9510626115942159
C -3.582804875666394 0.7456994206774287 1.2609211557131925
H 4.832125416389693 0.8987213768332689 0.1333788788110194
H 2.6010435498036726 -0.19078577930247645 1.8714992314255683
H 3.0150842881973015 -1.2992677953100678 -0.9294757264664623
H 0.836360757668024 1.6488235496986194 -1.901251708622015
H -1.324622853856723 -2.6520770532470737 -1.8462706764548693
H -0.6564376148502964 -2.7823887298308745 -0.04632656661978609
H -1.6073623046859487 2.118507535585606 -0.35718705288407154
H -1.6200024531125383 0.10075242649674755 1.6244495883802499
H -3.9202050837237445 0.3901175966838005 2.2325231500718097
H -4.295291387007419 1.230008440512121 0.5742905469895702
