14

C 4.104941309815456 0.99043731966643 0.00027102158198807344
C 2.925634003166838 0.5116482806387334 0.24029540706389432
C 1.8050208864831974 0.057971585131565626 0.6749944162059355
C 0.5374745057109958 -0.22925505724152662 0.7952648284896892
C 0.01774307620988478 -1.4587557700935316 0.12295259296834292
C -1.2612800069235142 -1.209029529956698 -0.5540799918451342
C -2.1552627498803223 -0.3332568691955374 -0.15782422342833763
C -2.6569261621513607 0.7811105201707678 0.30550035031540895
H 4.289879491848684 2.054511134822224 -0.10404722166340842
H -0.1338255132716431 0.40909160984375487 1.3720686339213808
H -0.1851095969458624 -2.2196543730881806 0.928426529056042
H -1.542792311990662 -1.7229151318448557 -1.411139899667002
H -3.316893698778422 0.618613060297648 1.093424477143939
H -2.428603233293293 1.7494832208492572 -0.06301986847999931
