21

C 4.52518925022302 -0.45454360830940693 -1.5796766952898553
C 4.29393666229695 -0.6448338702101862 -0.30200162023475713
C 3.063485152905663 -0.19048016978273646 0.29634331280158976
C 2.1644988013549176 0.42674577693099847 -0.47222880247381627
C 0.89455812560338 0.897552493448609 0.1373927057938013
C -0.23565111268056277 0.22589080140625 -0.543963809327497
C -1.3350023837964011 0.04485857045618795 0.119617095330931
C -2.496095574896633 -0.005298222087517454 0.693749453508127
C -3.6934365961748603 0.20646711662356573 1.15211079287947
C -4.905430055920476 -0.002023101002737753 0.34521430521619667
H 5.399762849050964 -0.7537145699346713 -2.105440444885768
H 5.02977605214313 -1.1426108700349973 0.295623547497377
H 2.881763964722878 -0.3510991515623655 1.347219681540339
H 2.3079321929429453 0.6033535909948889 -1.51229395010554
H 0.8048241665441193 1.9819221233622015 -0.08063001516336452
H 0.8808501613065413 0.7285186879260355 1.2375413034010714
H -0.0987286340498733 -0.08539613348061786 -1.5642219458123987
H -3.7817997394742817 0.5502922536523883 2.172318997755269
H -4.713910587489324 -0.6361305489867762 -0.5477945744974161
H -5.720260432327014 -0.5131533631231556 0.9062730795518092
H -5.266262262284704 1.011238620553546 0.004847582514497539
