26

C 4.926936818800387 0.6127208437330371 -0.6044619226756173
C 3.6645666435303497 0.895122817692184 -0.8125004152123269
C 2.5942952057393738 0.08044442310761453 -0.23424104680386093
C 1.304204480346203 0.2767777883002082 -0.38080145742295757
C 0.580029186342205 -0.7490999510757707 0.35026400146850417
C -0.8843982856936001 -0.8917029483074336 0.4455741381516963
C -1.763075306733741 -0.10621508121813306 -0.12086119735174033
C -1.439636014304766 1.0494582015580203 -0.9467652798571413
C -3.2130658742205522 -0.4060635276174576 0.08702050040982941
C -3.944637415383761 0.7153377329697278 0.7478184230002207
C 1.4622936373682833 -1.5588041630450895 0.93404518419405
C 2.8031392075780954 -1.0955934158540193 0.6086696807899478
H 5.703949369441695 1.1977757549131485 -1.0196895925305445
H 3.4236391435057145 1.7489811118273098 -1.424917175256397
H 0.9196818162210866 1.113389806223566 -0.9815022158727876
H -1.2195254293764386 -1.7545396479876214 1.0617719218074853
H -1.5571403846747787 0.8821352495524749 -2.0336939212995166
H -1.8381370856915054 2.010126709800553 -0.5996708540505098
H -3.639719445765794 -0.5080132640364785 -0.9535606030124435
H -3.35942827922614 -1.389225981455694 0.58521460548789
H -3.2436082074744252 1.4064474582497641 1.2311753422028247
H -4.568558629302561 1.30268341415762 0.025193944287563264
H -4.69048966398402 0.33668133782693777 1.5056894782566423
H 1.2161314963511864 -2.434380711213928 1.5597363895769008
H 3.3922867707331785 -0.8376180130095326 1.5147548182261341
H 3.3702662458739443 -1.8968259450910219 0.0828408360948932
