10

C 1.7367113476135494 -0.8412378212468952 0.4022587567992571
C 0.6606637939093605 -0.1632914313975695 0.036495486251889475
C 0.7648875635974262 1.2865224863555982 0.03318104006218159
C -0.5090665985158329 -0.9506091417719359 -0.3221209439491234
C -1.65005406369351 -0.45056541860184424 -0.7043650055066928
H 1.78079145550408 -1.913493217737854 0.44394021832109454
H -0.15038908551359523 1.84898824194361 -0.03660190264221076
H 1.6539128261536644 1.714170628878317 -0.4080469315400005
H -1.8380267344940129 0.5953247427987797 -0.7919889290746017
H -2.4494305045611218 -1.1258090692201954 -0.945913800536264
