20

C -3.5102024192522436 -0.7843228183355538 0.5174447801185091
C -2.222298668977067 -0.8993986323775841 0.222519013080548
C -1.4456499602680666 -2.1613270182598088 0.19044121554146964
C -0.1676963717579619 -1.909898023831951 -0.1468654388772832
C -0.05166698655227745 -0.4977842780357388 -0.3472929386114901
C 1.056364478748847 0.07246053709978216 -0.6803947434417537
C 2.1771867851324402 0.6984513167795386 -0.9346070860884946
C 2.9201368497830895 1.0960035137634079 0.2114783055502818
C 3.9592902486020214 0.41248803873033457 0.6129632721377885
C -1.280029808592267 0.11987319725709139 -0.12810871102329574
C -1.5867880198505737 1.3704116965475674 -0.2073684578710581
C -1.8267257476048586 2.6592844734949916 -0.2997561518748926
H -4.140231092778254 -1.6046513326880154 0.7688839636701258
H -1.797816133535249 -3.1620677000486426 0.3972484966732974
H 0.6049524755003536 -2.6640798307421343 -0.24006092499462472
H 2.360398221676315 0.8137994311618136 -1.9622736839478536
H 4.4910133072594896 0.7512188799761144 1.485756676816294
H 4.268251296338989 -0.45505378369673216 0.08836252511817826
H -2.128337712379642 2.960359045583658 -1.263931512090843
H -1.6801507414932575 3.184233287621803 0.6002540409828333
