36

C 2.4933935432724446 3.1118705619928524 1.4997033482385838
C 1.9993966215296501 1.911928935974835 1.7573529511129158
C 1.7204143443781876 0.6987451065141702 2.1782254123877633
C 2.454806119714848 -0.3967518506831308 1.6322576572546468
C 2.084287367246456 -0.6376768353414631 0.3951510135899564
C 1.8591731981083683 -1.0309633827825309 -0.8004528259424407
C 1.0064963043954762 -2.122704043264079 -0.9644778484674604
C -0.2405593009399099 -2.2753538772139077 -1.2177720641465888
C -0.9194282665760231 -1.5386906267300737 -0.36860731354623
C -0.5927614874554052 -0.2658156001609492 -0.632122039871522
C -1.3195158767500692 0.6861255022300042 0.2394128503368349
C -2.235299592762234 0.10485152794592745 1.1866633753475937
C -3.399900164867974 -0.739532461927471 0.9087401145287871
C -2.0367436954154043 0.34030823462786697 2.451666781055342
C -1.830790067570763 0.6487884374922313 3.7159746747756377
C 0.25999269119762847 0.22544617083875057 -1.555682939203053
C 0.5935540516423728 -0.09525960407843599 -2.8854922735055615
C -0.36255843265663207 -0.13324507590480228 -4.000765116817858
C 1.8920390299022214 -0.3673755929750986 -3.0369123209833724
C 2.5398005206308705 -0.3819588504256073 -1.864239022625252
H 3.3209690139643957 3.456972482513096 2.1280219986774345
H 0.9432674217920621 0.6251265786521306 2.920539646820307
H 3.206571479278402 -1.0035624244229868 2.0466228726368705
H 1.5148368373770873 -3.109742461854477 -0.821732842015864
H -0.6508568357453633 1.4413461222516868 0.692690888557204
H -1.9470387968168013 1.296301084701069 -0.4833264194952464
H -3.3141825038494077 -1.653451831179779 1.5297987614420223
H -4.310519244214036 -0.1463613610664738 1.1737679109578432
H -3.439666789225347 -0.9500358079497465 -0.17700755281337974
H -2.3220838066020613 1.522415863405745 4.041256973000861
H -1.1984815581544956 -0.03841367006563714 4.20324735398018
H 0.6821870637075599 1.2362837082604652 -1.2989877651280068
H -0.4935689914162247 0.8404535299724435 -4.5025937472074595
H -1.3627251678182557 -0.40639440024200235 -3.5735267640583457
H -0.11107182640545285 -0.9433499302427982 -4.715983367149827
H 3.516566797104853 0.08967584113847064 -1.8014123617229159
