8

C -0.9751030903777989 0.8954673983251742 1.2204239760339852
C -0.6925033450559706 -0.375632964452833 0.4428955884718204
C 0.5280978215081603 -0.2607461519604791 -0.3755040793543964
C 1.5213643067270457 -0.17982599042971545 -1.043615158273603
H -0.6585157764777125 1.7381041233614432 0.5710716663207459
H -0.607891433367101 -1.236771536147569 1.13711787002509
H -1.5256300360835613 -0.48470524562069206 -0.29436647153303175
H 2.4101815497911683 -0.0958896325345184 -1.6580233921903047
