33

C -2.3783002101218043 3.6222709698690134 -2.424165456347419
C -1.5022938988015468 2.737768354768697 -1.9750149281715337
C -1.4691187168954989 2.4132902675381973 -0.5932717913282536
C -1.3411624957422918 1.126545025191295 -0.32688619632272287
C -1.2418177111907713 -0.16438791580529158 -0.15156968212143765
C 0.12945067303341734 -0.6447286675651124 -0.07340189669631823
C 0.6940987075457523 -0.28326437548239514 1.2224836512202693
C 1.7210850854680784 0.5285533307232946 1.1805563607713747
C 2.7978604861313165 1.2662996313133918 1.0542401747160166
C 4.037195383300085 0.5413957927884113 0.9085089454094121
C 4.429747686758235 -0.08792423504607291 -0.15103429306385133
C 5.725288667995712 -0.7964790065714858 -0.17857765366371403
C -2.4782413908897656 -0.8686421994545749 -0.07088837745077778
C -3.533374016612339 -0.724673246212104 0.7059044542139475
C -4.572579200937452 -1.6949838972261109 0.41413645734265003
C -4.162773606141765 -2.459758210362064 -0.5611786042573029
C -2.807654738731298 -2.024428320089483 -0.9694063631273611
H -3.0871466802106498 4.122096009907326 -1.775027134542763
H -0.8319980605043575 2.287444735026236 -2.693478137398313
H -1.5273880793535208 3.0074037798775626 0.2714464141114697
H 0.2655201280871135 -1.6938630809141502 -0.36116469223741154
H 0.41494448248396143 -0.5676392375325402 2.1988373011427895
H 2.6152489300516724 2.3001113970813227 1.0744773819281377
H 4.683533637278453 0.5437393055967947 1.796878281441361
H 3.8067505185480326 -0.09798410337431507 -1.027087012823802
H 6.508761082472767 -0.05666425979414793 -0.49891345108507973
H 5.725773580840951 -1.6851536149638913 -0.8192023410695546
H 6.040639192724462 -1.1016363371607225 0.8610037433695458
H -3.613680088562217 0.03693097674127762 1.4783825696923951
H -5.54376361544746 -1.7964625692872955 0.9067518496215206
H -4.658819737181346 -3.293858801936672 -1.0529515937017144
H -2.063793625912725 -2.8478109497151776 -0.8134876570094832
H -2.781992369483334 -1.643506547928461 -2.021341661548507
