20

C 3.166906372449009 -0.8141699188788734 -0.8040120481015257
C 2.5348372146009495 0.11755422903796593 -0.09856024858668991
C 1.3992883962526534 -0.21523672296389856 0.8298660198763412
C 0.1397330652455224 0.3827855596532661 0.3276951498662924
C -0.954931711145142 -0.28570121275660354 -0.0025748676227447457
C -1.1363603412763903 -1.7743603344281493 0.06579379078812028
C -1.9983971379410816 0.6310944283965629 -0.4562644911282606
C -1.3779361119611875 1.968456098019921 -0.3547095465941161
C -0.15264958326643974 1.7937203223436369 0.09744986193689557
H 2.8455152208290664 -1.847632820664335 -0.6999005358609152
H 2.880660781170834 1.1418981810105258 -0.22538687514896602
H 1.3182525109546739 -1.30697043928629 0.8457390448880433
H 1.6226416912407553 0.10941333239116177 1.8742224460066639
H -0.9755465021734501 -2.2466656082658805 -0.9259227047308297
H -0.497659804054274 -2.2361373861530383 0.8167968079174344
H -2.196629519384966 -1.981482434517626 0.3631666028381325
H -2.3557400453218906 0.41608334947759373 -1.4927436717612892
H -2.902978234730475 0.6268907827075396 0.19258141275023508
H -1.8883533148731184 2.8976778691339105 -0.6195893607260509
H 0.5293470533848668 2.622782725742619 0.26635321339319123
