33

C -6.016827916167907 -5.373799824614182 0.4125537988607665
C -4.9029055913777 -4.7066220573717095 0.4942108876464459
C -4.884290759832958 -3.2679768563143248 0.4501294142873316
C -3.7519633199080578 -2.607308372340565 0.5357489516577686
C -3.7122808511645577 -1.1576952607172466 0.4893491963938889
C -2.5500680470377826 -0.5451560243222422 0.5921814613994828
C -2.5105909593519726 0.885103996092954 0.5417139132503562
C -1.6671107626667858 1.3814274649957134 -0.35665687132731516
C -0.7136231378569095 1.6794214590685415 -1.205583279498687
C 0.6201420800049829 1.45830607577142 -0.7574769488669714
C 1.6911077673472164 1.9589891316111678 -1.3927375887189297
C 2.872515911494645 1.5483511350778862 -0.6821830429602389
C 4.131397236509092 1.8368527374730261 -0.9901732773366084
C 5.226774513887592 1.3486892455887098 -0.17409746828132067
C 6.104802152533664 2.222722285622539 0.20052964551763433
C 6.942988129729046 3.181162176816176 0.5569739034289051
C 2.4305421612397207 0.743592116250196 0.45663541932643253
C 1.1257883166937102 0.7124232925240205 0.38321356890501135
H -6.959115282838791 -4.884241773957397 0.30884842074735697
H -3.972104757821607 -5.261007656756907 0.5991247060613764
H -5.8051983014718695 -2.7246374257277077 0.347301174679744
H -2.835191333976146 -3.184860159524422 0.6447459893925214
H -4.6322555151970946 -0.6159472537104362 0.3716936841331305
H -1.65329074898471 -1.1572117361839374 0.7142178802575349
H -3.012510733170459 1.6228256439184894 1.0801844894533867
H -1.0627141888716376 2.0427218014316155 -2.12258642994999
H 1.7159230998128248 2.571304259974743 -2.288276658796105
H 4.3023584570252105 2.441602190274167 -1.8635743699926446
H 5.394235042442045 0.3611207673292796 0.15197640132097648
H 7.762956540800264 3.296203810631007 -0.10085860626920391
H 6.680664229026599 3.6967494642437173 1.4418676782039668
H 3.131541580342235 0.30761689747286347 1.1534839834136885
H 0.5083049887571193 0.1892784496256185 1.0968307790797076
