15

C 2.9335989535541027 0.5738396137894389 -0.4258780487579241
C 1.767369086656158 0.021903958359581647 -0.6895950500590896
C 1.0973952725468115 -0.8764236140955244 0.28240004390275175
C -0.33021155163862836 -0.5746085397768255 0.4644807920874042
C -0.9494812446508163 0.4153479287094914 -0.18877317852232126
C -2.3931535209178856 0.6644756886449326 0.043161015586463645
H 3.40836673045414 0.3668121182096809 0.5159520795751249
H 1.2649459924171884 0.2082661785792473 -1.6230799554743105
H 1.6644668802756273 -0.8466406243473027 1.2318016970761292
H 1.2267627552303464 -1.9199052818934315 -0.13247503118719947
H -0.8886339555336003 -1.1897795276177694 1.1607044568722804
H -0.4409185630233326 1.0493666159863655 -0.885705835435252
H -2.5673366419079233 1.3095105442455712 0.9068350006925159
H -2.890683824489228 1.1255250234580443 -0.8383438922753985
H -2.9024863689729323 -0.3276900822515124 0.1785159059188063
