31

C 5.405400867651176 0.08689690724131281 0.2630687443754289
C 4.601743634080326 -0.8514514068079041 -0.18091629600328016
C 3.9541125332486167 -0.8285900020727545 -1.4540550033898147
C 2.672969415417158 -1.1378144057744322 -1.4485145497935916
C 1.3805508854942607 -1.3644239174684734 -1.333016550720889
C 0.5690526270480082 -0.21199318763856817 -1.086703239683682
C 0.5175899961793752 0.8546939811483668 -1.8677456168930595
C -0.41577230332809306 1.8674588430900605 -1.333700045181565
C -0.9186754014460723 1.2252636164917101 -0.09354616128154151
C -1.8733584828258423 1.7638404257439424 0.851379960603434
C -1.8989968207629775 3.06102023259553 0.9634412214765874
C -1.864593541514606 4.375336505086867 1.0194536440637194
C -0.34869508802194693 0.03404170871219888 0.039564394888376965
C -0.567061430874036 -0.8942805914598477 1.0988705884182255
C -1.8108545730797012 -1.3178063357423737 1.2408654248598436
C -3.0536804288938293 -1.7377958781364014 1.250864974022871
C -3.3307239296459756 -2.9003356747378732 0.40468433662962655
H 5.8775318626349105 0.04871913203896872 1.2164772760133404
H 4.417969393901608 -1.707516304626595 0.4712605047607556
H 4.321765517622547 -0.6039296619903461 -2.4147285375028495
H 1.1260334587756553 -2.380872787575221 -1.4394945437690203
H 1.0854023705619316 0.9840263627468246 -2.7903402899017506
H 0.18701177036125693 2.7916279191246254 -1.103552239849205
H -2.5571630447551428 1.2472739064030218 1.4672246739226924
H -1.189599728346716 4.767054753968647 1.734882279463803
H -2.5154318217580403 4.861453834959556 0.34155016205452965
H 0.08754696590808157 -1.317611669241938 1.8050742262203312
H -3.6984820761202775 -1.1796390884533245 1.8702193359946078
H -3.346676464182909 -2.532078519809226 -0.6615340726376355
H -2.5057348012206586 -3.6414069810907503 0.5314772782884478
H -4.309181362107312 -3.361161716725767 0.6374881205514746
