30

C 6.438772448055971 0.9586280507005488 1.6571137779526035
C 6.14675519941168 0.08581921447203815 0.7292977261702985
C 5.83801771239217 -0.5145948417201379 -0.4088711845193273
C 4.448517958611287 -0.8958238138846975 -0.5819347411435492
C 3.4469800327957807 -0.25328969016690206 -0.007872662220389053
C 2.0718029194566454 -0.6778922182288445 -0.2151894866663983
C 1.0911569136484578 -0.010642852493442146 0.37594428563110277
C -0.31723596931712855 -0.3795062297674459 0.21434260045128967
C -0.6533009558816585 -1.5443955843606174 -0.6328837176052426
C -1.262792804690116 0.2935405365103992 0.8035125051416854
C -2.6636252831646687 -0.05491403990439704 0.6558204580012043
C -3.9516689865010135 0.23721100455924293 0.9849353017380861
C -4.878093624587334 1.0933403308037084 1.712113007485736
C -5.6309207024170895 1.89913215017473 0.9774921055931444
C -6.254029862418428 2.6027861549634705 0.08373241993522156
C -3.768031777121068 -0.9062646884556053 0.09926275103758946
H 6.2313918228813385 2.0140137046368665 1.4749879476611247
H 6.597221031773624 -0.6951909931879261 -1.1469944910950047
H 4.235240281530148 -1.748378489161595 -1.2133925058882766
H 3.6614029209603314 0.5933713192973082 0.6189926729145301
H 1.8085538068460811 -1.5162966807095102 -0.8344903616145984
H 1.2906551553733199 0.8508987011409769 1.0150921533037847
H -1.646463878469806 -1.94895599313941 -0.3741714105832914
H 0.05090603512630931 -2.4120877868242014 -0.46554379690476105
H -0.5796845797241855 -1.2241535423460528 -1.6935176626845538
H -0.9928674566696094 1.1440560546237077 1.4261213732438918
H -7.1542089564668006 2.233488714428569 -0.35264503758317045
H -5.858965201183095 3.5478843491190077 -0.21153740174262503
H -3.865074212093916 -0.8291764251863536 -0.9909863293211516
H -3.8804099881596104 -1.9426064158928313 0.500973696772908
