21

C 2.5824301743493665 2.2820718041485355 -0.8875580972583417
C 2.860656639011364 1.14870225272102 -0.29139639360410696
C 2.0263450368274305 0.6895896595971253 0.7766695815854724
C 1.1050040020955598 -0.18130244135540174 0.4557062247783631
C 0.22301280590408698 -1.0241441516134573 0.006389614200587416
C 0.6411537619505743 -2.411669227606986 0.025186882730430335
C -1.0319473529134784 -0.4384914758170467 -0.4415416042865551
C -1.7152168798716203 0.34630383548591714 0.6595182545160588
C -3.0060208024399433 0.9327480645960441 0.1532061023194607
H 3.113959650797541 2.733836677849408 -1.685897264625452
H 3.709443064086684 0.585050162733835 -0.6150028572550288
H 2.0193838907528017 0.9308800558070908 1.7964458800726766
H 0.6358201219744973 -2.7475701163961124 1.1047099097012754
H -0.11498517380620925 -3.0772292078827865 -0.47313418175969746
H 1.6565633242123834 -2.5811388296765485 -0.3497504959400476
H -1.7454636971155288 -1.1817096791903805 -0.8237413104823117
H -1.0396566793640667 1.1031572733930426 1.1088762598123705
H -1.9747824043707916 -0.3808890879830624 1.4585731104527566
H -3.7810386431157657 0.9067317677190058 0.9438326050019936
H -2.780185769053662 1.983438679167177 -0.16826631454233137
H -3.384475069911258 0.38163398430356954 -0.723706785410991
