22

C 2.5038856305250756 -1.215095162160687 0.5866690742032442
C 2.2239266397056223 -0.08607345482005983 -0.02028875226675336
C 3.39798508552357 0.698346695342675 -0.6036295411660497
C 0.9229574601971298 0.5105372363166487 -0.20485198412477468
C -0.21706955159818403 0.014511940492823774 0.2110090046013843
C -0.5134226228091033 -1.2209835488739234 0.9464405728466336
C -1.7569182953476334 -0.8518017345513005 1.722975173882285
C -2.3234310468096933 0.20588186096965785 1.1718536898513747
C -1.552612917918967 0.6435690848888529 0.011696415098224158
C -2.091364226304021 0.12113120916053831 -1.299384268056874
H 1.7562911951372422 -1.821131273876828 1.0185198043996346
H 3.8155485606354382 1.2504799235241737 0.2555909811228963
H 4.1255555595388325 -0.02875943379223636 -1.028442808228829
H 3.0599186382566046 1.3589113616986357 -1.4079369966304012
H 0.9165146199324433 1.481637312607186 -0.754633071534459
H -0.8120781305515002 -2.052475172615159 0.28227411242544365
H -2.1551550706446716 -1.3506232976103871 2.5994155665954612
H -3.238645880937835 0.6880149545994987 1.5298076279618573
H -1.3964539219560468 1.7339644387889708 -0.047954219227053216
H -1.5008339301077176 -0.7455107032207966 -1.6799337305279876
H -2.0272699930128777 0.9016127424301366 -2.0918207892243834
H -3.1373278014537904 -0.2361449792981817 -1.1973758620006774
