18

C 1.8923205674337344 1.0936842660820487 -0.44717830473144754
C 2.413976946850143 -0.20055300868114143 0.1533151673116235
C 1.4997707867387058 -1.1507135949660934 0.10800755792747914
C 0.2553274371049566 -0.5983778337785497 -0.5316227094177952
C -1.0100657865163987 -1.1993915957263357 -0.11434144461000255
C -2.090860622461671 -0.23728218058013276 0.17427756321200222
C -1.930784515391683 1.0633687053637408 0.273997514695278
C -0.5979609765859333 1.596933415868032 0.07686773251323423
C 0.3974040782929551 0.8345280398821578 -0.20444079540590065
H 2.218819809976991 1.9196266462351517 0.2486874741993122
H 3.442817626963243 -0.24187249953756965 0.5518417159831576
H 1.5950283420340678 -2.148155739937837 0.45606722787413223
H 0.37295814843112923 -0.7381574150585637 -1.6641932314448273
H -0.7897447006827011 -1.807637097376526 0.8317056947462363
H -1.4250282402515118 -1.9186428898943344 -0.8813259995549907
H -3.1025122168139343 -0.6715397147906274 0.3126599077146031
H -2.744542960298423 1.7284732958234634 0.49323327447568166
H -0.396923724823663 2.675709201073168 0.16244165451221607
