44

C -5.781921552224555 -1.8167363592968782 0.26012779737148883
C -6.0053797552456984 -0.907916372968669 -0.6595284010811573
C -7.0975588450301546 -1.193317039075809 -1.5853664044200875
C -7.764478170981746 -0.1531920248413628 -1.9959245673272104
C -8.402811019760284 0.941006913927126 -2.376468807939439
C -5.241104600318554 0.28624242872951067 -0.7624493338808416
C -4.255502414261788 0.5753798392546865 0.049187077036310214
C -3.483502864165419 1.821955081977218 -0.08523663642750762
C -2.4879610972393364 2.142041286452902 0.7134293105239906
C -2.069822687152502 1.2475583225604348 1.8257076236549816
C -1.253215364309186 0.10167807269726989 1.333135510683904
C -0.7018317098020139 0.07475893956609529 0.12984092589554272
C 0.06667614703648059 -1.0739373931975673 -0.2517399492268497
C 1.0927412232577975 -1.3578837914792634 0.5026611515906055
C 2.152991032443401 -1.5047160013633456 1.2504356775835663
C 3.3269627266131536 -0.8057139165268514 0.8424227423123691
C 4.284603706535703 -1.3677055203853286 0.08402755083963938
C 5.338663472557042 -0.38811957275008085 -0.15000696394172292
C 6.445550682423854 -0.5846094194426016 -0.8562874804527708
C 7.453382668002648 0.4298781285932218 -1.0507914749080105
C 8.14340903587834 0.7492395031364862 0.008977105385331245
C 8.809192138827063 1.0307606430419736 1.117251453214003
C 4.918174617814761 0.8123959439855372 0.5414934260733923
C 3.733901825861641 0.5482091375225718 1.1188293387472967
H -5.047706082732506 -1.8028168349277567 1.0168620195614104
H -7.408896616932517 -2.1247378992483195 -1.9576366557898637
H -9.216933799177491 1.2036090638876096 -1.7564712989395084
H -8.005550008031722 1.393216582001281 -3.2441640432465517
H -5.4743241409230246 1.0049667984776802 -1.5487810800335702
H -4.014718616113178 -0.13651381215589875 0.838264981548813
H -3.7554549375239703 2.490826008095421 -0.8744132226294344
H -1.9373679049715455 3.051743323356377 0.6019695748245647
H -1.6141452594060102 1.7813222210844675 2.6573494396426445
H -1.1381532870087039 -0.7267039999897199 2.041340442658601
H -0.8728389539297687 0.9405237332180065 -0.49662393246367675
H -0.06858450083904023 -1.7356816255045215 -1.0604691573009841
H 1.9975235890824379 -2.1399517674597965 2.085300208743101
H 4.280269051946262 -2.3831139701449517 -0.29516861463232724
H 6.617813380689285 -1.5483901938627445 -1.3169779015507626
H 7.709193690964072 0.9497815462280718 -1.9344089935006352
H 8.381928023244031 1.804907705818468 1.6950470932179373
H 9.672739045648061 0.4402045585569968 1.2658507443630758
H 5.462947291475319 1.7455499137863588 0.5809914817767367
H 3.211100837776028 1.2954588304349035 1.698412242440183
