18

C 3.8220895462453424 -1.013377797347667 -1.0064789500221665
C 2.5271472395662777 -0.9050732452965996 -0.797566205752757
C 1.9431302320208403 0.40896704874057516 -0.5981366000744051
C 0.6398039670203928 0.5821643193916577 -0.38256532541667887
C -0.07239063630253037 1.8388753230597137 -0.16811238014804897
C -1.3454364988208516 1.5277500665773753 0.00243502792660795
C -1.5550965974907507 0.09194375073025622 -0.08466581628876226
C -2.874889553240775 -0.6208341859158616 0.059649012369893895
C -0.37503884948378735 -0.46019450184375327 -0.3126896426505573
H 4.249240674533825 -2.0160900677768963 -1.1557961022576462
H 1.886277149204473 -1.7745579973069896 -0.770943873390898
H 2.566007385104158 1.2950154777113543 -0.6205980363811214
H 0.42000134186588 2.792318876693341 -0.16475192851835263
H -2.1230500039356914 2.247730086520259 0.18232929165363645
H -3.562225461302967 -0.07031685735961148 0.713798657184456
H -2.670088503816966 -1.6029691995869433 0.5213093260237611
H -3.262512081835375 -0.7986288571405088 -0.9531908891842334
H -0.2129693493375529 -1.5227222397824092 -0.4261086085538986
