21

C -1.9146664120564787 -1.769183854295346 1.3518002250199221
C -2.3267556741367463 -0.947502675304447 0.4079471224271289
C -1.468344034711542 -0.5119178416790143 -0.7272715484163256
C -0.36886281652575675 -1.495603460605832 -0.9336123381208158
C 0.8000941032237662 -0.9359284198666912 -0.6361322241811541
C 2.2316806177500674 -1.1981781922807009 -0.5769008128623138
C 2.858110018672038 -0.1100379168939047 -0.16373136298802002
C 1.9105763014025072 0.994372240006199 0.09672984790269368
C 0.5755257505503046 0.4372968684709548 -0.2165855743287111
C -0.7439570787034078 0.6997364285894262 -0.2645073155050673
C -1.3878404855829678 1.9847725115704173 0.08457008116328896
H -2.5680917744254663 -2.059239212351806 2.1559738173941967
H -3.3355606306212255 -0.5571920532958338 0.4389180155556274
H -0.4501911385850656 -2.5303166268459982 -1.2748722366833354
H 2.749492994656388 -2.1269231001214326 -0.8239391795071117
H 3.9260533858170406 -0.007890394773079835 -0.023672392581015674
H 1.9349147530606334 1.3349916640580268 1.1526505680267494
H 2.1149172620221566 1.8851803441156583 -0.5349823178724371
H -2.399880944939306 1.7795328612389822 0.4537855750779395
H -0.7383232930889542 2.4922333676530823 0.8428558907403788
H -1.3988909037780821 2.641797462611528 -0.8090238402614777
