17

C 3.6635901858417315 0.3227264182336941 0.4334950637516217
C 2.582100708875365 -0.18166521331340524 -0.13262658265565525
C 1.2595790718224562 0.4754694833003348 -0.03330767726710112
C 0.1445664477266946 -0.505648909735337 0.05395639038911364
C -1.0738858810364351 -0.06738580715865049 -0.12745156084915796
C -1.3426082782738664 1.3480062184726391 -0.40910402347062164
C -2.2080613751192564 -1.005534423437594 -0.04965786167845872
H 4.596419649227361 -0.19761115901895293 0.32812648448143095
H 2.658944781697486 -1.0973749984299246 -0.6836877643691507
H 1.1422847428972323 1.1459688899868303 -0.9195495898584516
H 0.3720683382231325 -1.5677195618502864 0.2674502775966934
H -0.5981936878498517 2.0034172505825287 0.08221592858269587
H -2.3881703178194096 1.6027391656946253 -0.11418937469781422
H -1.318813002006534 1.4711672089698549 -1.5304428265447012
H -2.0288060866562923 -1.8204394859585922 0.6787106721011286
H -3.156509181583128 -0.4465975680981929 0.1822350485900818
H -2.304506115966732 -1.4795175082396168 -1.064090579473309
