14

C 4.538290373571051 -0.3643309483711187 0.5668136206438598
C 3.285999349223929 -0.5460903874753142 0.28792583939392724
C 2.0635976155771583 -0.751013792083161 -0.04230747414564877
C 0.8809322181150122 -0.6683779230098208 -0.5581655257019587
C -0.23546595184316413 0.11149257220852764 0.04155319184265537
C -1.414912298682846 -0.7814167019161182 0.08512524816714298
C -2.5965244360780924 -0.2249277654025955 -0.13321870693652807
C -3.6347081204285967 0.5608199091736966 -0.07534855155768427
H 4.909625805739747 0.5713177954167927 0.9697435999731323
H 0.6807680364453462 -1.1938735551311228 -1.4807038508282013
H -0.40187790455288824 1.0247643339133665 -0.5654290969936181
H 0.06850721205405232 0.46971663593739077 1.051444261606473
H -4.114970289146318 0.8177134138587188 0.8485309867331735
H -4.029261609994447 0.9742064128807466 -0.9834946695932621
