17

C 3.5105587139917085 0.5393454413062814 -0.45028339497922937
C 2.363444648417234 -0.02487862659374737 -0.1008571063451967
C 1.1848375999365146 0.7840201239461938 0.007113217406887853
C -0.0755764784854761 0.2846140782603472 -0.4389566019498591
C -0.3113782472820717 0.008660662110815091 -1.710802793427711
C -1.1731535589363387 0.06326061458833103 0.5635450038131379
C -2.420376174289013 -0.4679653398161751 -0.11325158843844446
H 4.398714690618958 -0.03334482075007161 -0.5383105769525826
H 2.3636906290927624 -1.0898203735680212 0.0916210003216081
H 1.240931673253736 1.7374008920150925 0.5072978755061551
H 0.4827120414620568 0.17055673373514907 -2.4241274277356144
H -1.2442518277506305 -0.3709929239395655 -2.106779954660614
H -0.7719417890541339 -0.6581617807122576 1.2943876538178791
H -1.4175702809644357 1.0005609620576703 1.1062590201503375
H -2.802638387881755 0.21680747419873075 -0.8733183249604811
H -3.1836770474864267 -0.7257492227399973 0.6480456116054699
H -2.144326204642771 -1.4343138940987004 -0.6175342708899263
