48

C -4.803946390938836 1.467504705046425 -0.8290132989032206
C -4.853390209822589 0.24715158689993927 -1.3515232041084924
C -5.983738702633106 -0.04180713407324419 -2.2761544921575076
C -3.8282367964837434 -0.7877697764012289 -1.0308608787145164
C -2.8574661241535644 -0.1857650269078138 -0.0958528026008493
C -1.6363965077166638 0.22435068671056044 -0.6111963617965104
C -0.6660617132818016 0.8048444447764638 0.17003287874996828
C 0.5800841874778672 1.205484471785465 -0.4390816827595702
C 1.0868508553091756 0.42428660401901536 -1.3814857906505604
C 1.7881224801808953 -0.4639713683878158 -2.0666631682150998
C 2.446948666229734 -1.5311872927224266 -1.3270849601362296
C 3.7348789668549633 -1.4086570336290198 -1.079603625590283
C 4.48372026708742 -0.2217057691412186 -1.5410466723511203
C 5.571748935519851 -0.5970417177945689 -2.4466100787412395
C 6.833696027813091 -0.34899816286216223 -2.225710959399572
C 7.4036409323021175 0.32556361544973017 -1.0796127737730905
C 8.70541508864511 0.5206441259128957 -0.9644549376718657
C -0.9390956366113907 0.9731285505805312 1.5014053602277988
C -2.1333943232028476 0.5870682982354768 2.0767419286305744
C -3.097896555896214 -0.0037203603362498455 1.235961080961418
C -4.219513265149756 -0.3022375519172616 2.089974261332495
C -5.352753253661882 -0.8567192652776013 1.7793315379769767
C -3.8370652349587573 0.15244233414575592 3.4599204962161703
C -2.6365938371019317 0.6632824458844687 3.447906467030734
C -1.8759562405683485 1.229131454049979 4.580049059266623
H -5.530113513872188 2.230031680331624 -1.0445432343338876
H -5.876784329082562 0.5985395638383854 -3.1619004770359918
H -6.110966731099609 -1.1032987501904283 -2.48264245181966
H -3.294030099048773 -1.0470744698776 -2.01004767754949
H -4.310680805336996 -1.698717020083789 -0.7434141140608879
H -1.4643373110339188 0.07109645443328685 -1.6744739755529447
H 1.1509405646988442 2.0855438456712148 -0.2014753103093417
H 1.9021109465368435 -2.4172410293225535 -0.9792051529858565
H 4.272721012170934 -2.174416432465825 -0.5330644343019876
H 4.88171495362491 0.29358947087706844 -0.6584680809505155
H 3.762439537481365 0.44846200959293425 -2.0674668992173957
H 5.319089937933758 -1.1265017877160364 -3.3838103689464214
H 7.557435640995534 -0.6852891535109925 -2.989171813516984
H 6.779681276683286 0.6862910174259348 -0.2902888720846519
H 9.14226557729853 1.0213208475119464 -0.11656482379845366
H 9.375575892735549 0.17020654821575612 -1.7438118132846976
H -0.198068105606104 1.4313711366423936 2.1671212765439667
H -6.131632696660012 -1.0252525405340476 2.5519013344976345
H -5.628490806252851 -1.1827393086310924 0.8222756285941271
H -4.507179681609755 0.0425330014004602 4.2917006613946125
H -1.263291135050849 2.107964130830408 4.296035252583638
H -2.5624928064177706 1.5776025255148831 5.388149393816393
H -1.1795089343265037 0.4579519160570804 4.967798569495174
