10

C -2.522910315919285 0.08550517181534659 0.4517389126597973
C -1.1632749611928488 -0.39062265239475674 -0.023589916472541432
C -0.2615232716998329 0.7836519147400408 -0.015074169952417341
C 1.0326187575418484 0.5090083452345913 -0.06591851058786664
C 2.24499948443451 0.051276376690475155 -0.023096160279075628
H -2.699875351249418 1.1401448264332725 0.2161034626564871
H -0.8166010787626835 -1.2296206567125438 0.5779737997788138
H -1.298462534772674 -0.6731802610576473 -1.1076898813950637
H 2.734052766400294 -0.07371544309028415 0.9178154053861899
H 2.750976505220102 -0.20244762165848512 -0.9282629417943243
