16

C 3.430699181877555 -0.22500748724046002 -0.963094828380456
C 2.324748194056792 -0.9021192983933879 -0.7536804901582885
C 1.4440720501789295 -0.5010750223533362 0.3683828142777931
C 0.013126508126498305 -0.7003799908156797 0.06799385694119349
C -0.806681254578203 0.32690880222710744 0.08484502938429621
C -2.230787278621976 0.19360795647791784 -0.20333962870117148
C -3.0683476336172855 1.2008960331161949 -0.1930796507939988
H 3.6704929054145112 0.6035496516029882 -0.31583031276577556
H 2.092307650919689 -1.7298094237451704 -1.4060098492486695
H 1.7383582681991268 -1.0075806589284375 1.3256976467312667
H 1.6186276711837362 0.5913505342338736 0.595086924747141
H -0.38116200312382564 -1.6722169770635493 -0.16654607749203046
H -0.46553506504441816 1.3447075999262847 0.3170760199455195
H -2.6002233502280587 -0.7900022660942154 -0.4352308317494029
H -2.6812051649819457 2.1913825094032755 0.043262672577932516
H -4.098490679761071 1.0757880376466293 -0.406302985069688
