20

C -2.3158251703246697 -1.8311350931592287 -0.6440504331056113
C -1.9103867288781662 -0.8860106616933454 0.19516993943786573
C -1.3409178504955188 0.38681250336711964 -0.24329328803535077
C -1.9300989114677087 1.5717461433942446 0.5370214284345886
C 0.13157725249584998 0.472148181700979 -0.041499232914502485
C 0.8545849625829623 -0.46074244928378644 0.5136423285129229
C 2.3070240109918356 -0.2921505971990347 0.673198333587943
C 3.0141045940742375 -0.6469822856494618 -0.6156940378784961
H -2.262989681193017 -1.7478592852850316 -1.7141822196652128
H -2.0141548151764717 -1.0848639802746411 1.2544903915067893
H -1.5756678113862608 0.5180868045966079 -1.3179225046132037
H -1.5436578483318957 1.4257695954757128 1.588651932458656
H -1.434745461143923 2.4671475248537744 0.1244711420294256
H -3.0143770984780964 1.5649813008382836 0.4716241831026622
H 0.5987520938838812 1.3936547951344405 -0.395950505755608
H 0.3832095027434959 -1.3693688596249423 0.861362769657859
H 2.602903610205273 0.7255454032064822 1.0088574027060568
H 2.6163169725743436 0.030194937503276405 -1.4186696247830468
H 2.7223593730398674 -1.6850739825552263 -0.8967336758250833
H 4.111989004284138 -0.551899995346376 -0.5017881912102125
