15

C 3.737601841708559 0.9517554055715916 0.0879844460962224
C 2.6203952255839518 0.36877122878396157 -0.29505256198814034
C 1.5225973215315454 -0.3078683599982379 -0.48043352020849384
C 0.24536085938386226 0.41293291790779346 -0.4433358308666952
C -0.8666451997124621 -0.16280381349378825 -0.06087990550781585
C -0.8460412913457431 -1.5821711004915324 0.34816878519769917
C -2.1245682676286264 0.6022097950079188 -0.04037818045100599
H 3.824371158834951 1.102458108460099 1.1766606020933372
H 1.6002299296440863 -1.366436221603729 -0.6511603221908417
H 0.19523890765983198 1.4572164148285252 -0.7375271238709487
H -1.4769921611983041 -2.226826075351235 -0.2840526660616364
H -1.003668347974961 -1.7341217865347411 1.4303214469566539
H -2.461574659997508 0.9023829378524685 -1.0565058316322384
H -2.9626323419787415 0.05094940485302716 0.4140309250116803
H -2.0036729745102795 1.5315511442080552 0.5921597374211831
