33

C -2.6595015969772127 3.0825185571264684 0.15126247841467685
C -3.602708995291788 2.1750593235121376 -0.06797175176327286
C -3.4211984590547684 1.2821896957430017 -1.2469497245054444
C -1.9987828766043734 0.903231496942485 -1.3354630537397425
C -1.2911689359403569 1.3333626588212517 -2.367259625551972
C -1.346956553343018 0.09227412297401637 -0.3582926429889829
C -2.0670172897003387 -0.31651811996041324 0.6454058979859105
C -2.8779088164522553 -0.8036526161980158 1.5729483369138535
C -3.499298972595827 -2.0435249066189622 1.2523710786386157
C -3.000088338873266 -3.2206680676439876 1.558138888923887
C 0.033464042250418324 -0.3620119764351961 -0.3112200991836876
C 1.0377309871394984 0.676434481137777 -0.1174584106004195
C 1.9247229236251138 0.4402623177810246 0.8312468339274798
C 2.8129072888681583 0.08152101771119359 1.7354000881902087
C 3.923998881822193 -0.6671433294821568 1.2399451713592446
C 4.474186181890197 -0.3496533776418146 0.08812880737264686
C 5.631393508790494 -1.154463803203515 -0.3948542278255196
H -2.8001894756080494 3.727816371099762 1.0115899139021551
H -4.476557081839839 2.0472856036892653 0.5444957621273384
H -4.044168422067166 0.3690072598248533 -1.1825543616694723
H -1.7493216622291436 1.9384839800293348 -3.110008230413592
H -0.2283090786536982 1.0762919602329757 -2.4751013480269086
H -2.9325983542036997 -0.18072081313711938 2.415808470748849
H -4.450963159554207 -2.0192087850914584 0.7187242368072798
H -3.4969245978662187 -4.140326062324713 1.3002297808031031
H 0.27516014619135126 -0.9908322924945141 -1.1850737709451844
H 1.1861229940982456 1.5963628422024503 -0.6073767524755913
H 2.573316372637517 0.4015224882776774 2.7105522538512834
H 4.318029062196062 -1.491269411362858 1.8000223115345513
H 4.084887707126485 0.4862902955874088 -0.49385654257856293
H 6.5499491291161025 -0.5705495652643888 -0.14386358455618753
H 5.501440651948964 -1.2578421170793848 -1.4926507923911982
H 5.616352789154037 -2.1415292287545493 0.09533044754507024
