28

C -1.909256044057784 2.1878392653724164 0.1343546893972956
C -2.6434264444125883 1.1285650098328524 -0.1013472454377852
C -4.0983313590187 1.3731651614025036 -0.19230010109959605
C -5.002644668255901 0.460942967516993 -0.4196357148547059
C -2.1271852313102704 -0.20881515479447513 -0.26977097264650574
C -0.8840467382177751 -0.5867981134938328 -0.21918535435562922
C -0.5609766627709881 -2.0472353976503017 -0.4246438718878835
C 0.2954835883939207 0.2572932963414241 0.021808865318407467
C 1.3771520210196408 -0.028055573918242472 -0.8902818217700332
C 2.2029631199305584 -0.3087444545891999 0.047894901760672424
C 3.6183249938719273 -0.7261775724625439 0.00030303380199467366
C 4.47356593767262 0.10970148396506675 0.5015557965075633
C 5.263554785109191 1.022360122441153 1.0323257543607627
C 1.2159638335179401 -0.056130416952457775 1.0823368457268103
H -0.8693139520888389 2.2775173396854904 0.24181633933263064
H -4.415197886611521 2.4160517338021195 -0.05328487083833162
H -4.752124329059813 -0.5624909020214233 -0.5614645745635198
H -6.046191703648976 0.7282316030079842 -0.4701318091569201
H -2.8661117779028475 -1.006115146597114 -0.4638493560850526
H 0.06214683572063499 -2.1878018503267254 -1.3364154696944146
H 0.04149890437112346 -2.3544814049795084 0.43304951725410323
H -1.485157719494174 -2.640434754760611 -0.57263587437777
H 1.545077467268819 -0.035603248264249834 -1.9881726665653223
H 4.012361614153763 -1.613243713731051 -0.3884312021548096
H 5.430690416950511 0.9051071625484657 2.070019780903952
H 5.6194117265845405 1.7446530362687194 0.34694331548985785
H 1.504614200220189 0.7628300316369945 1.8003036426517056
H 0.997155072064563 -1.0121305092806734 1.6361086699476726
