27

C -1.2721526245101225 3.525724750378988 -0.4512884418939214
C -1.790001307961897 2.434604227748004 0.09220726632512873
C -2.503158666622987 1.4832153014739835 0.6140423726561872
C -2.8631390078059873 0.33083441578242323 -0.17795316081569137
C -1.905201485842448 -0.5161767271893647 -0.5312411615530276
C -0.5352645774020859 -0.3220643005657214 -0.15272338818970085
C 0.4199048226048432 -1.152392344859048 -0.49603170831210436
C 1.8080062839025561 -0.9934966918431859 -0.13625905377622669
C 2.725546417336614 -1.866128264126942 -0.513292616597383
C 4.149961619306139 -1.750771642867417 -0.17412016962992086
C 4.453092369700621 -0.5235856360590893 0.6545951602490014
C -4.242300840711024 0.12123860448773204 -0.5679897493798268
C -5.148876309126841 0.9975116564020382 -0.1866055737688647
H -1.9933915952547065 4.136634546653788 -1.016555340925914
H -2.8298505264378835 1.5471746146176297 1.6310020125097773
H -0.2533040131831355 0.5383377872801803 0.4410444995790433
H 0.14431648461197183 -2.0228150826010225 -1.0949529790947357
H 2.067096694900114 -0.11937534822985224 0.46200331236537956
H 2.4248037758032597 -2.7186036566981384 -1.1056653639907363
H 4.449870462194416 -2.680055308758096 0.3650998459091411
H 4.768953553356981 -1.7324840801134767 -1.0977813869033073
H 3.7628605989328596 -0.5345494167833305 1.545887324496784
H 4.293321499186444 0.37525216553323615 0.04727216490597586
H 5.510681972695825 -0.5306532264573814 0.9837544992806218
H -4.554307954892803 -0.7363679503707858 -1.1657912426302135
H -4.912775253726503 1.8691015220056653 0.40578066910166083
H -6.174692391081418 0.8398900855808813 -0.47783028057208143
