33

C -7.119652443604604 -0.9394664842800683 2.2016491663036337
C -6.607030581046917 -0.05390524488491983 1.3723470525917643
C -5.249031721675542 -0.25954137413852985 0.8437985096638295
C -4.728551491040515 0.6134575468831452 0.01886921418595767
C -3.359461822554466 0.4212104434133048 -0.5238467105532495
C -2.551887334315993 -0.5793738237824642 -0.2638726083458443
C -1.3003421002842046 -0.3877395886844405 -1.0002095935776183
C -0.199128135984301 -0.22474835210465421 -0.05241159868760324
C 0.9128051453363872 0.2366418524451888 -0.5508336423074208
C 2.016719408241044 0.6329258918214495 -1.1459398230589166
C 2.8603281632040556 -0.43200535754500463 -1.6732465124417648
C 3.3504821596253254 -1.255040462093676 -0.5358733974439978
C 4.60549409104577 -1.2650260941792164 -0.18374695666713453
C 5.760658792486777 -1.0004863557438137 0.33945342989769506
C 6.972025729019186 -0.9615518140150757 0.7929509818239292
C 7.2461394784773345 -0.2279791429119425 2.050976658143882
C -1.4856859628842387 0.8701146044922231 -1.732183881382542
C -2.6856136508479183 1.326084581511545 -1.4444985544424824
H -8.11089847819387 -0.8104344942312043 2.6012280388862226
H -7.170335215860837 0.8034632732602638 1.0867638126297012
H -4.683132644256732 -1.1233295299057637 1.132312069027824
H -5.3091370908493545 1.4793485155683845 -0.2638524255953023
H -2.8308412604970417 -1.397458614371217 0.4072374307442312
H -0.16013416837069241 -0.42400361096236183 0.9789495222305832
H 2.141197536502716 1.6810390397493196 -1.161432695522879
H 3.7563409043495826 0.05552748472605481 -2.1519582259631433
H 2.3450109723641877 -1.0785145566302048 -2.4316499502981976
H 2.673915883346293 -1.873128446327265 0.035306877745110044
H 7.79601705924463 -1.4362662573334957 0.3024163854447643
H 6.690091223842688 -0.6782465630532426 2.908519505244659
H 8.315945460751987 -0.21077031419073006 2.301253510869135
H -0.7868669956615018 1.3812135131493746 -2.4075447562243504
H -3.1054409099082765 2.261139747422761 -1.8509308329201768
