16

C -2.7344737663686605 -0.14964539766812526 1.0172208365952518
C -1.6390132851655308 -0.8814295207560084 0.9338498661422482
C -0.7982947679307296 -0.7739241931626941 -0.2770324082270108
C 0.35975336522410517 0.05821290125408806 -0.15736040318417785
C 1.5627474582886707 -0.38190949873121816 -0.3292179862896077
C 2.7164904765146733 -0.9549247066235227 -0.4346810221501785
C 0.22392540389323404 1.4352620911351017 0.1645167818848037
C 0.05887367247714344 2.29406505144899 -0.8410921632950501
H -2.992632676950406 0.50678222434152 0.20733154561085107
H -1.4136680653000968 -1.529812020018033 1.7700063765566463
H -0.466390390687594 -1.8299126907986851 -0.5047604504065943
H -1.4325545441045862 -0.5253406489227347 -1.1793002759448439
H 3.1473444068249026 -0.9943614529484378 -1.3808061307489619
H 3.1941717017520856 -1.3613223029578183 0.3948816665250211
H 0.2556836507839382 1.7677704604145335 1.2115108302582098
H -0.04196263925113201 3.3204897039930987 -0.5950670633266623
