15

C -2.811994452225545 -1.5014632043300358 -0.04311882211104667
C -1.9040744743519369 -0.6219099117423894 -0.36439788735745426
C -1.0392650321506225 0.35963987830431826 -0.5296763810178361
C 0.18338146618319354 0.33040306861786833 0.2701796871728131
C 0.49085068960752537 1.6892263898440094 0.9133449509874015
C 1.330614920069574 -0.05885720193572568 -0.5983748896164478
C 2.0173687082432075 -1.1679162800383072 -0.38617344778222623
H -3.4287869931114985 -1.2879197030812835 0.8064312303811331
H -1.3240945570605214 1.0896291005209702 -1.2424880683746902
H 0.11832700426613817 -0.3839462057218718 1.0934045209129353
H 0.1306680641571867 2.4794161229297496 0.1988725301847765
H 0.010100039577156258 1.7749278108687496 1.8930798233685933
H 1.6160910762970337 0.5713682912070835 -1.4221495969309095
H 1.7686061704794038 -1.8339230566037308 0.4292939283009911
H 2.842207370019717 -1.4386750988394017 -1.0182275781180243
