38

C -1.3985919865366012 -3.588733103240653 -2.206362526509529
C -1.308196703923243 -2.3399501247712773 -2.6090096798689038
C -1.365147189434518 -1.2130569472428858 -1.6901187885557756
C -1.2707151284509774 0.04624407153473005 -2.1258220367078877
C -1.328832967226332 1.1663207945962286 -1.198785876479807
C -1.231416107029761 2.406929188943117 -1.665373810020503
C -1.0659137732034885 2.8296901139152744 -3.0451333233874784
C -1.0112767596889736 4.150957678040208 -3.0897202941555166
C -1.1421553736208967 4.625274063820983 -1.7176137008106052
C -1.2722736944334143 3.6216862493269684 -0.8661648504543484
C -1.4922659926110533 0.8910437083056425 0.217317787310687
C -1.5822351673670065 -0.3365378527015349 0.6230590901778974
C -1.5302719852735442 -1.508887338632197 -0.26479466588085543
C -0.5415005741240596 -2.4600459576952747 0.25958690183438493
C 0.5910549781723624 -1.9765548801849706 0.8019287397877325
C 1.602149277398056 -2.9103462457168394 1.3367121613141766
C 1.7712238489544643 -2.5854077090209855 2.824334991656437
C 2.218024817606596 -1.2041675642685712 3.002258385960282
C 2.611588134367991 -0.056628153007368266 3.152476439157668
C 3.1036412188571028 1.3102522475139609 3.34509489714638
H -1.3607633414709763 -4.440221614051799 -2.85272662867849
H -1.1873893071035495 -2.1467120735215013 -3.6597123000771914
H -1.150387021772332 0.19016418361069926 -3.18929469225961
H -0.9927700164532801 2.206455365615529 -3.936311935938239
H -0.8931422955469395 4.808422575526526 -3.949971613219643
H -1.1335763101018759 5.687646213003028 -1.4272860378052639
H -1.3881046740960419 3.695707279811366 0.2275076675215178
H -1.5307466024735221 1.7603091849413208 0.8754930662279794
H -1.703309103100708 -0.5261544058536158 1.677180639669404
H -0.7238264477222643 -3.513982234974694 0.2084417702079887
H 0.7776577528032084 -0.9134577110690181 0.8548504201500239
H 1.3351077866269885 -3.955795568647967 1.1874455820160839
H 2.581610730044229 -2.7416590781962973 0.845068292972503
H 2.4955068581621767 -3.244008888438879 3.3132539289864393
H 0.8087425187365429 -2.701449817662871 3.361901136853979
H 2.794993557907126 1.6704400551862781 4.342024465417189
H 2.6821968019832014 1.9608748451062594 2.547286196065234
H 4.231310241133512 1.3353394500909375 3.3138015770586366
