38

C 5.8124461820781805 3.0750935750247317 -0.6621462777009315
C 5.9394483643993485 2.053023794937471 0.17155669797766782
C 5.75877444017244 1.0104611801613197 0.9268992892130811
C 5.837018737582737 -0.34602674988561694 0.35386698819880213
C 4.454994977171006 -0.862464146969648 0.18201301054280655
C 4.019071755958193 -1.193886458233691 -1.000420598845624
C 3.5962603648344076 -0.9870930948406874 1.3889622626897915
C 2.252203039225291 -1.5181517799525184 1.0283291610825818
C 1.3226216342632675 -0.7154970650772939 0.5423130882288876
C 0.3919342460456494 0.14913532433010396 0.37191905599893726
C -0.43960688985783436 1.018138403057743 -0.1246233428757663
C -1.7565785571742685 0.5513844758443266 -0.5609280014019856
C -2.183280266637286 -0.7290060192187285 0.16907065524128626
C -3.4992627332908812 -1.0944445880125857 -0.34482481290029593
C -4.625538505795523 -0.8559031084165059 0.2723979601748371
C -5.4990517493904045 -0.5911066047837371 1.2015636715990439
C -6.0503528914606575 0.7095981327686706 1.138261388206639
C -7.122520628744658 0.8710719662366914 0.3853860419930953
C -8.180731595912093 0.9301680983256313 -0.38917071177185864
H 4.824348112344596 3.2465788815048637 -1.10684632785467
H 5.55056459108644 1.139101996999168 1.9673255132604988
H 6.39840669113125 -0.9743456069808044 1.0920899819540415
H 6.374460890324975 -0.36485192295996116 -0.619652620305519
H 4.646513954056995 -1.099409707123855 -1.8595712153389683
H 2.9981067281014036 -1.5727492956170106 -1.109600446886133
H 4.049477419754422 -1.6742168346624562 2.1431063384183218
H 3.4616110356774 -0.0001969405647607863 1.8885776767682763
H 2.0365650297309204 -2.5660616407431553 1.1651565271992357
H -0.15334250302168592 2.0515237012037297 -0.20681214439364012
H -1.8254359464039134 0.32811483388735335 -1.6444731886393562
H -2.5672354167824665 1.308642359318336 -0.35759404559466107
H -2.1952047033401474 -0.5145945027943037 1.2646313809496472
H -1.3899247944851267 -1.4661484676265923 -0.040352747480957026
H -3.620813189337141 -1.5736375699962277 -1.2468073149177819
H -5.7996082445026795 -1.2524896874729303 1.9593981809167702
H -5.73738949616138 1.6130449215549372 1.6108165452450482
H -9.10079778015978 0.7473930954387544 0.11020914707982883
H -7.978152301481334 1.149807051339323 -1.402118767228616
