20

C 0.7063462654563544 3.2784951838823004 -1.459800391261773
C 0.9741420613868711 2.411306900165199 -0.4968451280312355
C 1.0360582093122384 1.538926319082667 0.47732578921698854
C 0.6659075439228859 0.14267600853427706 0.15638131579511674
C 1.8208659004712258 -0.7753854393674334 0.4344104682564188
C 2.4549126805171277 -1.4219485163035654 -0.5200510818230903
C -0.43671105821942957 -0.29880491501455786 1.0444314239324703
C -0.967491601122486 0.5091212289367086 1.9487563560809642
C -0.968064069157852 -1.655958125667154 0.9376542381172275
C -1.8075170356136918 -1.8731094312619565 -0.047909992826622755
C -2.4751749208403484 -1.8979818947927978 -1.171968404240834
H -0.31057763616589656 3.6868227504209825 -1.427853750264034
H 1.3462992051625418 1.86541924136618 1.454711622095319
H 0.3619687854604749 0.02014682661633546 -0.882799942580035
H 3.277355104324763 -2.063235799266876 -0.2253147196364792
H 2.2242373869576317 -1.3675894583355788 -1.5773632823072488
H -1.7666439330717372 0.19928325173512176 2.59714192399476
H -0.5776852618266132 1.499584496197272 2.024650701592546
H -2.043263195490435 -2.1676653119818288 -2.117718431590665
H -3.514964431463468 -1.630103314945339 -1.1478387145197129
