14

C -2.335260752185773 1.7891804250823338 -0.8620734510620341
C -1.3881187126581216 0.9125537964651498 -0.5736425635829409
C -0.6484441649919905 0.01720902181021052 0.054661825505392954
C -0.9612800028605312 -1.4115005969855143 -0.1257528095623102
C 0.42632647943601787 0.4308686067541744 0.891094226510746
C 1.6412587217301524 0.31128775195356156 0.3903046638090373
C 2.8121536066392494 0.16378147715594396 -0.192205707046437
H -3.1179779767327593 1.9710661920257733 -0.1295918191053841
H -1.3972165383149258 -1.5298631539232252 -1.1517063070591145
H -1.7724921965534055 -1.6677307513058715 0.5743463895200565
H -0.07062928404520671 -2.0464885902328995 0.0250046715547693
H 0.411455485778946 0.8279879802926968 1.8717506391887324
H 3.135835632207762 1.006964432847488 -0.7461052991547182
H 3.26438970255063 -0.7753165919398122 -0.026084459515787597
