17

C 4.713961997597765 0.6068637922080122 -0.3629608026322966
C 3.868130754509843 1.6685730913097692 0.08585935411474815
C 2.599695589528162 1.3497271270861306 0.1013138802075671
C 1.233587956691056 1.0007734763098306 0.0954227151135845
C -0.21567445285407702 0.6293576592971376 0.08490020238473761
C -1.1290509826592543 1.023793485317719 -0.6062889935034879
C -2.4189292571563663 0.2472057027487262 -0.11700922673496747
C -2.0754679139098946 -1.2368330140594759 -0.49912419566704225
C -2.4405025852515894 -2.0758504317213067 0.45255789760761594
H 4.2980702199215335 -0.36572731674739584 -0.6709949242924353
H 4.295119739572724 2.571178358813078 0.39670699988150127
H -0.27736847687943766 -0.227259983030148 0.8853683310425432
H -2.3754010893973767 0.35928743183255646 0.9460106742576758
H -3.2507972732380526 0.5837588913203937 -0.6295183164209669
H -1.5612459729154446 -1.4254826395713336 -1.3615206850501727
H -2.3710237359629267 -3.1334411822363193 0.5214133253948052
H -2.8931045175706527 -1.5759244486974222 1.3647969728800498
