11

C -3.2590489568877845 0.5492751857386887 -0.721868915718097
C -1.956154702310397 0.3726189222761208 -0.6311401551011943
C -0.6655012563134733 0.19419606133626643 -0.6770775186562539
C -0.03104583709484446 -0.4050406219903387 0.4836462032322929
C 1.2844134454339842 -0.4145424162375101 0.5420031589676256
C 2.0911844352603883 0.16558859235224524 -0.5382185549206692
H -3.8389449731036502 0.04947703817379232 0.06936667383626224
H -0.5940119660893798 -0.8438381614976076 1.302112926766241
H 1.7776642672797969 -0.8646380922318011 1.4143226783488023
H 3.1641219545982806 -0.07536372812763899 -0.388286164698709
H 2.0273235892269215 1.2722672202078604 -0.6044960580365691
