19

C -2.5942824116891403 -2.702022806145869 -0.8608590558245512
C -1.469187070716407 -2.0509477719693834 -1.1156474936602043
C -0.9611102314531373 -0.9957916427662191 -0.2498396366122571
C -1.7756180352293465 -0.6738720747637351 0.9486659984800003
C 0.15371323837918743 -0.39592550777635266 -0.5571147693250883
C 0.7927740585653891 0.668155626737509 0.19390494610841985
C 1.9195333196937359 1.240137572625211 -0.1616469911634532
C 2.5417640479635737 2.3217916149205173 0.6282928716941649
H -3.1642997080998763 -2.451654334216105 0.016153720069751524
H -0.8813176991929352 -2.2983572880591407 -2.006060822752221
H -1.530706296114465 0.29031816740004246 1.4201617854983797
H -1.8138624574084001 -1.5184900030957282 1.673990326002754
H -2.836606233495013 -0.5315574472552834 0.583010092201236
H 0.6956831026863669 -0.6977922415561822 -1.4705965883810026
H 0.31717424725763904 1.0103486897280047 1.097420266719276
H 2.409913256974084 0.9124518915889669 -1.058972563468774
H 3.654236310209568 2.2225414164790376 0.549799900165374
H 2.284318861641711 3.339394761324237 0.23507383716476604
H 2.2578797000295747 2.311271376801581 1.6944626420362399
