18

C -3.7761826378287555 1.8886852612706069 0.4219454308497029
C -3.0411878599357145 0.7922799452542 0.4653934343719831
C -2.573090166946178 -0.4301948984657715 0.5358634366452275
C -2.1181841031469233 -1.1598465886754532 -0.5956843091643197
C -0.8364865940957006 -1.4283693583065862 -0.6404654198359777
C 0.4676431778151614 -1.559229209044403 -0.6564413318064752
C 1.2048152751261512 -0.5063438992141398 -1.2631390338278359
C 1.7763925737886876 0.34922333427083946 -0.4645870047783406
C 2.4184998969194553 1.0960437887230783 0.41841140770882046
C 3.7400750239020724 0.6359296628066566 0.8100387168256555
H -4.761987877889691 1.7770167170009041 -0.02371541171023309
H -2.5403823885027776 -0.891014282587216 1.5087526949289645
H -2.6586898654878963 -1.5322045961141 -1.4334765394767983
H 0.7986710384580926 -2.4562075193051687 -0.20094287785157106
H 1.3659116457727978 -0.30725071515802915 -2.3051450227018417
H 1.8606044980315473 1.9395739356627295 0.718069011166736
H 4.260148104237569 1.433995269269041 1.3844799264919048
H 4.413430259781768 0.35791315261249 -0.014991658227728877
