16

C 2.5876399046801257 0.7893299920146452 -0.6237954966767302
C 1.9794480057579569 0.21023977608106742 0.389177767347557
C 0.747792880499519 -0.5625575115985062 0.13115405376924066
C -0.42243963626473335 0.3385832428419712 0.1632545837395382
C -0.2976084511138875 1.6230863361154162 0.393899873313247
C -1.7411622189802682 -0.22968674055408636 -0.06907054657982008
C -1.9379451458689279 -1.5030430966104382 -0.3052504687764765
H 2.237571646703161 0.734281254278319 -1.6476830100173472
H 2.3811919533110624 0.3058558161904555 1.3767983778532291
H 0.8695586638088516 -1.0499388544131714 -0.8703608201473151
H 0.6766538143442923 -1.3556134785155742 0.9263862922930064
H -1.1419429530050118 2.282787503817579 0.41867615583134155
H 0.6797832202602907 2.030261039922522 0.563713254681239
H -2.595418238026878 0.42954967735972527 -0.04539603430645183
H -1.101070556242484 -2.1687725787576073 -0.3318294709960194
H -2.9220528898608173 -1.87436237817149 -0.4696745113273172
