23

C 4.898174801142262 0.2506529061900959 -0.2584268038872228
C 3.673219945803827 -0.2087110831914535 0.026240184559385482
C 2.540959420719707 0.6744892922929778 0.19844923183873667
C 1.3258946480677005 0.2867070665931689 0.4758464651676596
C 0.8306461345021662 -1.0785159146865526 0.6725272153589074
C -0.25334099588112596 -1.4539765859043958 -0.31589559522128585
C -1.4375824588101744 -0.5530992621017916 -0.2103039364945591
C -1.5534375693901523 0.6390080822979183 -0.7763985197719216
C -2.870573191239898 1.248324419928184 -0.45393052188873323
C -3.5098485987101875 0.21513870194159113 0.3964571364189179
C -2.679775679070043 -0.7813719485874054 0.5130491944345495
H 5.03093928584557 1.3192229835804419 -0.3600987594486506
H 3.535375487908606 -1.2695006949506584 0.12868938111268372
H 2.7400898956935484 1.7510301701602164 0.08275141121262851
H 0.561242435345906 1.0791080888692002 0.578637300776729
H 0.4954015296581779 -1.2607697073039508 1.7272867676159536
H 1.6567677189080021 -1.7902698569886946 0.5042353503279706
H -0.5350891234963748 -2.50703199508718 -0.08535213470305977
H -0.8080186737227906 1.1395840470194942 -1.4003271225998006
H -3.482613519416606 1.435184363843734 -1.3626738330428076
H -2.778705675173983 2.2011357298110004 0.09604604309069545
H -4.512893732977315 0.34873498994320407 0.8145483240352362
H -2.8668320857067124 -1.6850737936691913 1.0758900857204357
