12

C 0.7118846683359292 -1.8479438479548358 0.8585010675035086
C 0.7840129810935611 -0.5800293137270404 1.038896399707192
C 0.17320002724448383 0.48454630091870554 0.2688866301016193
C 0.4137442152738974 1.7644958588522064 0.6813015668316079
C -0.6540457217761085 0.3629099254531803 -0.8744552713347198
C -1.1756414927693841 -0.4668969206719069 -1.6437954702571074
H 0.1863551789279764 -2.342887748914368 0.10542028998244596
H 1.4035720236231162 -0.25970947140553385 1.9098228530831678
H -0.0006134504548621719 2.5933441494696683 0.16579562341083964
H 1.0293824877015425 1.9032622516024755 1.535208674290565
H -1.072797203948285 -1.5416866661373296 -1.5717798589836132
H -1.7990537132520301 -0.06940451748520107 -2.4738025043353904
