22

C -4.350155899633661 1.7894600601781558 0.30255908308001295
C -3.675954047492666 0.6362281874576242 0.35882320840486764
C -2.3230277440232134 0.46460405809907707 -0.24006510304536635
C -1.8371344154887728 -0.9044489059280162 0.11241111987866435
C -0.46286210129174604 -1.2045979209832458 -0.4413875260232482
C 0.4751492397198797 -0.1951017940997122 0.13409122209093788
C 1.4990722483122692 -0.596278144213986 0.8670663868333949
C 2.4393457644893815 0.31328727503056136 1.4510703732530585
C 3.601624132900168 0.41746151905013434 0.844612445005907
C 4.720045024700961 0.46476128126857524 0.18212083196194098
H -3.8585702034349456 2.610458238561489 -0.20850982196712473
H -4.1939900088684094 -0.17571083220199532 0.879703521621207
H -1.6410101605866525 1.2795227624488217 0.01054462885449633
H -1.7368338300526205 -0.9859659701573835 1.233657187622209
H -2.5991367050090033 -1.6323407401501953 -0.2344691562444774
H -0.18336661598262124 -2.2076704343771936 -0.08169416739522144
H -0.45796142845391014 -1.1488419090892508 -1.5581384080295504
H 0.35567273717430997 0.8633515773950381 -0.021936476263132117
H 1.6534025515454718 -1.6655759270560657 1.0478801954604173
H 2.34571553936891 0.9233746337694292 2.3052621958640147
H 5.465430324308452 -0.2370278469388476 0.4996012940259981
H 4.7645455977980715 1.1910508319368913 -0.5957300004960475
