28

C 3.324332394933968 4.6805986587469794 -0.9291401831395573
C 2.5073242640031896 4.0057202301747195 -0.13997276442730314
C 1.4153116317841288 3.626788482071936 0.45899977862639296
C 0.516818933156059 2.967186060112361 1.1524467240227403
C -0.007738898886768512 1.6733583073337306 0.6825153943652071
C -1.1058640737229233 1.5202276543674893 -0.028738638236861076
C -1.3334683310890387 0.09132694356089284 -0.3251588312915295
C -2.5987374420795137 -0.37794019078984875 0.3960905001214233
C -2.7877882845636575 -1.8271675356086432 0.06635523155836308
C -3.8749530121737483 -2.246003423732742 -0.5541916141847263
C -0.20143701526105023 -0.5748844142932471 0.320166570823778
C 0.09888131347955882 -2.011491891530864 0.3569665937075856
C 1.24735096036874 -2.410956114671226 -0.15847791462676666
C 2.483327979592077 -2.756971137842417 -0.3120481613880482
C 3.703227044386256 -3.1223575733318745 -0.5883774210035319
C 0.5415004455774485 0.35115764317622333 0.8890792754428386
H 4.322309707944877 4.847307019808212 -0.5223191676097545
H 0.18093901302253643 3.414165137409195 2.07931776638302
H -1.7467915308677977 2.339256478189614 -0.3469942831727866
H -1.403994343455249 -0.10151728130080705 -1.4124560402376065
H -3.476394448722984 0.23026733534991392 0.1347223615544831
H -2.466721970158728 -0.3282861295062299 1.4902488279843198
H -4.6929270750802345 -1.6161215993708609 -0.8687861539809281
H -3.958479589514996 -3.3051546121880016 -0.7673634485459037
H -0.6022409354755721 -2.71015573391321 0.7930420278567281
H 4.042984648785348 -3.3879043283117007 -1.581292500779571
H 4.411379722688056 -3.160205553796603 0.2257917325805613
H 1.4618488913304357 0.1897575698878065 1.454286615550624
