13

C -1.067878898036707 2.0509949073570235 0.620796576910067
C -1.0892992083185922 1.0890423630470831 -0.26387487090307793
C -0.2951750535850867 -0.08130708039255584 -0.20551039803680685
C -0.9149170098278483 -1.3861011438998796 -0.15813876440552685
C 0.995612707180973 -0.01334876979390526 -0.19047882529449306
C 2.2626615642926007 0.11772293879523928 0.05258687481872915
H -0.4105705921361605 1.9929096567616722 1.4785086182131841
H -1.7800867009499042 1.209942110331848 -1.1120465560570583
H -1.5103655348582001 -1.5364011209012507 0.7814990496415919
H -0.19350935764577826 -2.2403169469290827 -0.1611927742345661
H -1.5426547624572242 -1.541107880456889 -1.060564831680387
H 2.8741935665433838 0.14175050130448785 -0.7909177797293808
H 2.6719892797985896 0.19622046477634536 1.0093336807577316
