20

C -0.4925380537748656 -1.8098021688994697 -2.292670804326997
C -1.057555460368021 -1.2484958827320878 -1.2426808850743498
C -0.30112363237352635 -0.287105935033204 -0.4077372508422642
C -0.5355424229368424 1.067722294880637 -0.9898091933788667
C -1.714985182269268 1.675565227211888 -0.9000868849343788
C -0.8411324669438949 -0.3213875284273084 0.9643822160761122
C -0.19021972746262433 -0.8180270139522521 2.004887013482234
C 1.1401938565904586 -0.5280723844943936 -0.41159530270758
C 1.8731821907511346 0.33678052733079034 0.26023674806899577
C 2.5235521718286047 1.2497213839065366 0.9092238910544599
H 0.5231599197312581 -1.6170039663879001 -2.608020064964655
H -2.0731215465514796 -1.4769087068524336 -0.9739680758442197
H -1.8525058633290397 2.659632889107833 -1.333563624128883
H -2.5709229289014237 1.224355945121468 -0.4011961161169299
H -1.8299543476342297 0.08349718496842162 1.13455696951178
H 0.8011677465743895 -1.2279273001468614 1.854078050094283
H -0.6150580780548769 -0.828300263466129 3.0006787450535746
H 1.6933620111526921 -1.293393851906332 -0.872305279969623
H 2.6785754929619747 1.057921457455291 1.9364578487304256
H 2.841466321009684 2.101228092315428 0.36913200021704384
