19

C -0.9497580253117198 -3.2177459589204505 0.7870905728049746
C -0.6383441867967785 -1.9060367413152335 1.2998564959115126
C -0.6508158694754667 -0.9210944730346214 0.4103324044598381
C -0.6942282106987934 -0.04414884536415394 -0.5549111158038074
C -1.959924612411984 0.5617439707856101 -0.7613889053814958
C -2.1813682970261654 1.7147608925373612 -0.19729848680182901
C -2.3039715441354964 2.874134704099199 0.41273449502453236
C 0.5468014971061552 0.15105131954123316 -1.2401010034217568
C 1.7080148955696028 0.027643812736977306 -0.6633905866113233
C 2.817652757410236 -0.30775910096617404 -0.09071777355439994
C 4.093086141480241 -0.41161579555358496 0.17287139836275123
H -1.7046515553286916 -3.2034921643347505 -0.018492816495555085
H -0.39623576029143803 -1.554976409111376 2.2586037476364567
H -2.795375971102924 0.1999834370093942 -1.3343322112616194
H -2.686131805999274 2.815177455326407 1.3982239159334593
H -2.0039441298043283 3.7094113334516257 -0.16194462694438505
H 0.49811661450931255 0.41846753553438204 -2.30772980117221
H 4.509178840382726 0.030281254201108474 1.066395213990065
H 4.791899221924813 -0.9357862266228787 -0.47580091667517843
