29

C -4.74674875795474 -1.6713953683832838 -0.11753909782890387
C -3.488338501564253 -1.3197621728359075 0.09380097955670715
C -2.267038166273118 -0.8806965194678616 0.06148997900405901
C -1.2179713003594168 -1.7561806528946797 -0.3845842840170824
C 0.023055030284086203 -1.3120559572842372 -0.42205667774127453
C 0.40333477884466984 0.05020889124207942 -0.027336153704298868
C 1.4908812142052597 0.1052417163155064 0.9204101949529451
C 2.7040478452326155 -0.07539457824405948 0.412222804007451
C 3.835030968519945 -0.2701436563671431 -0.20365289305981452
C 4.475625455581573 0.9454577917178852 -0.6968540095991692
C 4.259221681549404 -1.6522111490666864 -0.2955490404141381
C -0.7201042743524538 0.8863184615068348 0.4167572870345615
C -1.972670270319143 0.475443755448096 0.46696497365838513
C -3.0391890427966977 1.4161147473321591 0.9372585910950743
C -3.121593896334838 2.5797749501020237 -0.05742560275126895
H -5.13872391000586 -1.4004002779696778 -1.1080439623436535
H -1.3774481156188167 -2.7907394182924725 -0.7035824656289175
H 0.8253621948145176 -1.9654240723087775 -0.7578473217884978
H 1.5272225230486767 0.2620674275878858 1.9544904289029654
H 3.7834194825453937 1.3913063841842956 -1.469731139681951
H 4.459225153424298 1.6980476437804857 0.1410750881196913
H 5.369806496351846 -1.7204341678545165 -0.43781253729207315
H 3.8157261158351083 -2.1448349549683186 -1.1976472633746222
H 4.028317727502218 -2.245345441181937 0.5993097987249542
H -0.49609448292739955 1.8993498380781624 0.7190267332410332
H -4.01906358526888 0.9002652199002812 0.8903103519517508
H -2.6420649245383205 3.4895714677109986 0.35594368313199287
H -2.5819845122937553 2.3110952419924513 -1.0046617797006532
H -4.17124292713148 2.794754850220063 -0.3412096425036134
