31

C 3.191824649643852 2.8499375773346567 1.2896827357689256
C 3.675135876570175 2.1832163971268055 0.26558699314480694
C 3.180342141558493 0.9239315681003609 -0.2431781292843723
C 2.157511404011506 0.2693474914136377 0.26783180230443243
C 1.6598869535707648 -1.0163902476260265 -0.259292987761747
C 0.202106744698914 -1.204482797635845 0.07661677826433894
C -0.5783258661437397 -0.14605154625736488 0.01887730081453302
C -2.028815897246628 -0.10055896074819169 0.3050029181198419
C -2.322103722534792 0.9075882696731913 1.4153161528508929
C -2.708093746544757 0.3655996773078067 -0.9185179958434643
C -2.7401597184046254 1.6556440682442264 -1.1016229699211033
C -2.7291540726455312 2.9755135588568513 -1.2098520005590556
C -0.1970345709781285 -2.5728926696463708 0.44231961951810966
C 0.06017926075515516 -3.5673080840143148 -0.6688912024606106
H 2.349784153715656 2.4440501659900504 1.8168907452659662
H 4.535886654745275 2.6402139957044346 -0.23959986706074313
H 3.6557926654021364 0.4480188711508133 -1.1064545144257
H 1.6494918645872985 0.6877867094293794 1.1179300471109357
H 2.2860178656978882 -1.832245318036712 0.10390853506978412
H -0.10440385101283557 0.8088724734577571 -0.2732722473446626
H -2.460884800295277 -1.0750481764538935 0.5640051122922206
H -1.5815147951267985 0.7970306152094311 2.2248559344223278
H -2.1511836022060753 1.92563443886697 0.983698149971824
H -3.1763118926327376 -0.20837638373493386 -1.6734136102345618
H -3.558701390903598 3.4498216444363314 -0.7644009108241459
H -1.8909999103630528 3.3558508228800914 -1.7255065025648977
H 0.4563063054491369 -2.8934289890504643 1.3050114611377759
H -1.2180258796991497 -2.592572658370052 0.8354909855657093
H -0.8481829547716456 -3.7119229734407453 -1.3052011798787502
H 0.8937367955226585 -3.227829627300595 -1.3149315105205237
H 0.3398933355796302 -4.538949912869629 -0.22888964294610178
