10

C -1.6606956643625943 0.9871782629732961 0.10203271286580037
C -1.2126336691299924 -0.3554606707113637 0.4643656971689742
C 0.05893494073151531 -0.7356325795833287 0.5236147821162909
C 1.1806381496623735 0.2006383254924234 0.21664060307168734
H -1.1368482891439289 1.444209893592841 -0.7516200505508818
H -1.9670875949651059 -1.095338508537031 0.7019542558897228
H 0.36144574465212914 -1.7406437729731983 0.7960817731492014
H 2.00361115803486 -0.3541284213378185 -0.2807308633617286
H 1.5335674480062023 0.6076903923941345 1.2020121114452251
H 0.8390677765144934 1.0414870786900112 -0.4434153575699367
