11

C 2.068403837571397 0.15107781496644074 0.4179919067276021
C 1.1230922896878504 -0.7684323219439887 0.5278939350670313
C -0.29654981358082017 -0.33909462340386465 0.5900098595414525
C -1.0385282950080335 -0.6023046281135552 -0.7353585893525693
C -0.6714603989167702 0.8205060719930017 -0.2579089840818727
H 1.8456584911424847 1.1847457279477935 0.3727908192788046
H 1.3222032404250197 -1.8246092449670694 0.5758090870393433
H -0.8523338222238774 -0.4519903520626581 1.5244799903380344
H -2.0716158925869754 -0.9424301802751708 -0.5865642325363007
H 0.11915242259541399 1.3362530323326745 -0.8454321919687671
H -1.5480220591057554 1.4362787035263709 -0.06599778552810301
