28

C -1.1674215725974284 -0.7663647244320725 2.245951663860307
C -2.413554271506307 -0.5215825878926835 1.873236645950942
C -2.7038693066623516 0.20628368012945236 0.6442935153272441
C -3.96259877444337 0.426684086396509 0.3135464706175332
C -1.6354929926628128 0.6985005619006405 -0.23146241225048042
C -1.7427541848083274 0.237411783461655 -1.6447499752332546
C -2.4330643039732096 0.17679658168072968 -2.9537143151056187
C -0.6609354910826736 -0.14184578344541893 -0.8637594237835329
C 0.6233601023209315 -0.9217229852481658 -0.8196145996733516
C 1.6772101269261848 -0.09240552767824411 -0.1437951746631192
C 2.390740825686696 -0.5349264126586597 0.8584531609521122
C 3.382071980278945 0.30324723460794956 1.462683124152336
C 4.5970103366522785 0.1958907538976369 0.9805133242466492
C 5.794147012503035 0.03271760358505887 0.44139354191348174
H -0.9676679679501895 -1.3034015935223384 3.153187044200944
H -3.2240739293310123 -0.8735542440949581 2.5011121725557603
H -4.234570936415489 0.9595219220858581 -0.5840219234222193
H -4.795171053974541 0.07911292929034998 0.9347040624142775
H -1.332385499817329 1.7538438390592883 -0.04207134098131154
H -2.5283608345679403 1.1922339900971257 -3.378271797414447
H -3.4731798107313927 -0.17504582106962396 -2.750665072576965
H -1.9096889998460822 -0.5135162331338166 -3.6320626519688926
H 1.0049050444983816 -1.105609295001315 -1.8523339932515168
H 1.8142955589443575 0.9046478957112412 -0.538249963727313
H 2.244644288830972 -1.5346280227804427 1.2447322578651545
H 3.285800343270711 1.0049796493540561 2.2479515570746402
H 5.991728621211029 0.6698736328437681 -0.37548888787413043
H 6.378875689247007 -0.7143846101544838 0.9085029907947847
