20

C -3.5717417620807392 -0.6767095729223296 0.6514378435313232
C -2.303768484511124 -0.925444723164954 0.3036717450568553
C -1.4291855077892708 0.08359124542468761 -0.31133068795211416
C -2.278818112104099 1.304534667628139 -0.6793664373814848
C -0.44387019092260005 0.5297003545602436 0.6836402579160372
C 0.8531965131558656 0.2865112435097859 0.6164567451986136
C 1.3342143437065976 -0.4757538759280006 -0.522799082272282
C 2.6167163673519336 -0.7348253763006571 -0.6200703056886127
C 3.5525960468895774 -0.26192327875458965 0.406508518349795
H -4.013899887401814 0.2992531373484392 0.49015555722529863
H -1.9081414181183303 -1.9185555003614014 0.48606550122617415
H -0.9664663021818736 -0.2561222720299824 -1.2649546954208928
H -3.116305269179949 0.9537553768136707 -1.2813951949852074
H -2.5783353588062794 1.7878121885996376 0.269610399800195
H -1.6207115187695447 2.0301581215839457 -1.2261398575435505
H 1.4742806054463298 0.6638055594087588 1.4029368268770421
H 2.9277012806918075 -1.3074511431389026 -1.4889525051927315
H 3.7936597621209116 0.817401729859101 0.32932382358358625
H 4.487744082078654 -0.8837676324171609 0.30959163646180254
H 3.1911348104240136 -0.4395745782051587 1.4456099112101197
