26

C -4.686749878820626 -1.5979876281223822 -0.5624236413536043
C -3.46505972374753 -1.449574386153393 -1.0605468157873925
C -2.454151115196559 -0.6151783386750078 -0.3462224302229169
C -2.590438544953315 0.8252341922894638 -0.6677337497788827
C -2.9494157942986976 1.7443109855559515 0.22974955303385228
C -1.1326209750632745 -1.1521396338267464 -0.6548765230616087
C -0.16423335358616742 -0.7997695087128015 0.14986068200594008
C 0.7553991743492389 -0.2948735417659218 0.9282956457380872
C 1.3581663762498322 0.964998250585708 0.5129182947405752
C 2.6095326543733495 0.6982535639081721 -0.157998671634567
C 2.9586381831415007 1.4118566881756756 -1.3584816742447445
C 3.420397025605613 -0.1841200813711891 0.32130864390034886
C 4.270052560331619 -1.012139777967988 0.8361599529387
H -4.98973897511066 -1.1286566355707064 0.3623714600361652
H -3.2512855562220078 -1.958589370893373 -1.994633461540306
H -2.679561577464442 -0.7138077848099522 0.748001521720664
H -3.170636476352909 1.5335073560739223 1.254379300020244
H -3.014053477800879 2.7638296725085736 -0.12682186082641217
H -0.8266825933922066 -1.7894228184139858 -1.4378335650624434
H 0.9481431904333775 -0.880249006431348 1.7830904308584754
H 0.7032926251436168 1.6147691913225544 -0.05613032881451726
H 3.0965539217478883 0.6528454959463469 -2.1855269246836304
H 2.1474849088275714 2.0893293988981196 -1.7336684784265075
H 3.9183744486151117 1.9627105828985874 -1.2684647660739303
H 4.20692834556527 -2.00602616454045 0.5431121254737664
H 4.981664627624379 -0.6791107009109717 1.515005274544113
