34

C 6.86664153778127 0.038588949891682274 1.0816638779382566
C 5.731305907633987 -0.4353157357891753 0.5946305151479274
C 5.144321204499617 0.1503060125760141 -0.6007930057455613
C 3.784016301250143 -0.2958010191023987 -0.8509357499457002
C 3.0650053169325786 -0.6008936940480961 0.21633557653381408
C 2.4148055960687382 -0.7807169643121524 1.3458058133561526
C 1.7531328211981936 0.39791281818367763 1.8891937682377298
C 1.0300930474839047 1.0861118991099168 0.7978422922115399
C -0.1781840487297526 0.7415146452223246 0.4844234319981762
C -1.4041124106084322 0.46640987580020005 0.16589750424677285
C -2.5188777895109395 -0.1451614620631483 -0.05611996916991583
C -3.0075304118550092 -0.38996895417288524 -1.4381546955254185
C -4.37514764939618 0.064819427574977 -1.646438602980572
C -4.857005692492379 -0.08246214757697923 -2.859446661235011
C -5.262859296034162 -0.2664001226057815 -4.102548571801878
C -3.3668834822503095 -0.6336436763829917 1.0581494382957073
C -2.7042449341557058 -0.2910378440551643 2.3454298660921475
C -3.0431601071057206 0.8492933470724183 2.9557449615053026
H 7.4036969926652105 0.8682284439024198 0.6242295489383969
H 5.25652251042392 -1.2572083939796597 1.0995184974475307
H 5.2506726091994445 1.258527535232273 -0.5377816829724997
H 5.773335403665955 -0.17159769749521347 -1.4822535282204685
H 3.2541983836788604 -0.42180555005035336 -1.7509834369502006
H 2.466961050006524 -1.7707739989817122 1.7048848855248935
H 2.412982900254695 1.078060607631234 2.4442511630238952
H 1.5292031041987337 1.8778611876381572 0.27108673827921237
H -2.31095791965118 0.0477557930774892 -2.1863372768034335
H -5.051644152104413 0.501719052087788 -0.9640618864675182
H -5.7226698244183005 -1.201772683510822 -4.274780825679503
H -5.068720397585609 0.5482585037983018 -4.746992925482343
H -4.371413627308008 -0.1632948107782909 1.0368383829182175
H -3.5120107885172414 -1.7351962856946501 0.9602668265858161
H -2.5929899999169312 1.1471506613146496 3.8930526680949793
H -3.7884821553013666 1.5221708997166146 2.528383062603714
