21

C 3.5429437744909036 -0.41161460738503003 0.6084003759674168
C 2.4797041528027153 -0.9870972536062766 0.015986763278594576
C 1.4367816045861417 -0.20915105054152822 -0.6728362339896454
C 0.2561960544651139 0.09386112491527923 0.2424816038327601
C -0.37195723139112374 -1.1438230927886257 0.7301911600763498
C -1.4943407313714765 -1.3267984309903074 0.0914005388704718
C -1.7681849476648126 -0.2595783860574094 -0.8922646117933064
C -0.7757008059274217 0.8291338949746182 -0.5476972570224643
C -1.4513308158883054 1.9326950748210998 0.1901148051632018
H 3.661935575273072 0.687011088949471 0.5916962363417682
H 2.44473337411986 -2.071228056039583 0.08197143434915612
H 1.0365792758661527 -0.8532237254027425 -1.4978466397417196
H 1.797796133651948 0.7116356095042773 -1.1573718306316187
H 0.6521550274298319 0.6445127464821613 1.1077704895235283
H 0.04741535603766074 -1.7813142916530056 1.4943642204649028
H -2.171692727460016 -2.167750771030243 0.2497701497514167
H -2.7999365164256065 0.1610299103579338 -0.7865815521972834
H -1.569438765235174 -0.5633876990248139 -1.93700475884666
H -1.807599591352169 2.6751947267917355 -0.5709401725412783
H -2.3619842013993324 1.5583924949053751 0.6885466098263038
H -0.7840739946080686 2.481500692817375 0.8865481709263586
