19

C 1.1762416827256663 -1.969274412880488 -1.25885391167187
C 1.031250616525787 -1.3155328060963691 0.09834833841990495
C 2.331647644659655 -0.7520720873865153 0.47282460523313996
C 2.5427481264532825 0.5193521575432176 0.1760356215399167
C 2.6595462285837836 1.8123928475011677 0.04512488965643888
C -0.07080582974737656 -0.2805270904393165 0.09670418641910937
C -1.355300168473593 -0.9181801922897181 -0.25038349172266444
C -2.515973753092262 -0.31329722123719833 -0.2782670492507859
C -2.609538333541072 1.1434515476224494 0.06012497228490671
H 1.9422755066851471 -1.41428320420055 -1.8078139767454386
H 0.7920670723554124 -2.1239818391386973 0.8187259835942611
H 3.136429290958946 -1.2408129743106386 0.9591125526533852
H 2.23094898443511 2.4248271429891353 0.8204038568816907
H -0.09995117237804473 0.3103585029447986 1.019974228906805
H 0.18906883712062938 0.4390956639214839 -0.7297671420541774
H -3.3911729056793845 -0.8883356467456941 -0.5487646194589515
H -1.6505633710364442 1.6519119166553122 -0.07314757225162476
H -3.322021836530271 1.6004843593894507 -0.6871705821156842
H -3.0168966200249874 1.3144233361585569 1.0667891096816067
