33

C -6.5049783992432175 1.204838320495133 1.4926783267518549
C -6.495050974855614 0.66554647878829 0.3046983436210968
C -5.32139705745475 0.09738816434048896 -0.32196603479230296
C -4.171038182091667 0.10479523813835327 0.31233390252071547
C -2.9559406661831793 -0.4784298283486998 -0.3253802768816842
C -1.8448551488305807 -0.4421498563251473 0.3516319860312283
C -0.5181866664302619 -0.8870719359536321 0.07983284383244489
C -0.013922908646526613 -1.5395366322589032 -1.0926594481503793
C -0.5761256630262745 -1.9017219707775088 -2.195789401888356
C 0.40957924298588044 -0.6663218826308124 1.0664165464867326
C 1.7452314115937555 -1.0890850586703669 0.8484597935241496
C 2.5352385603233345 -0.23077078334562634 0.23370790523367402
C 3.265746736980103 0.7224361243009148 -0.29093528459580287
C 3.8835804052921286 1.6214277811839681 0.6301545860722921
C 5.206029150747372 1.6770365524012834 0.6824895208510902
C 6.057350468393252 0.8280850380284006 -0.19250762819622616
H -5.702867273844408 1.3188574793392636 2.1758942132312797
H -7.4560276495981945 0.6562454091762537 -0.23219303906444033
H -5.391259287820223 -0.33576464090724967 -1.3178467502329128
H -4.0533863012824645 0.5191433180670695 1.2923033836270401
H -3.1241028348261426 -0.8779748123855389 -1.2996718265240481
H -1.9650685110660926 0.05035038762557378 1.3766585837600196
H 1.1012738578151917 -1.8002034041112023 -1.0703211205094503
H -1.592725188788142 -1.7644175839103644 -2.4380326782526707
H 0.01705194095000326 -2.411730206326304 -3.005402771295783
H 0.06873617615147895 -0.18403055983962252 1.9502871706564917
H 2.235784009752504 -1.9921050069403297 1.097525803313315
H 3.2973357364114735 0.6957537726632921 -1.3434773056387446
H 3.3249671884970486 2.266382179239892 1.2945805192110404
H 5.733466590753531 2.3404586494305426 1.3619581616117193
H 5.586555963032184 0.699017971351039 -1.195551443285666
H 6.186640825879491 -0.18206957918796374 0.280718520208085
H 7.032364448428954 1.3156208773495601 -0.3762548101991227
