24

C -4.913152623345123 -1.3900950178782747 0.3290838062291711
C -3.7297658507507845 -0.8322052372928433 0.2813132175638281
C -3.633066192652549 0.6433481957130682 0.14295081772201432
C -2.522488348164532 -1.6371931708850547 0.36176810357797273
C -1.3475311415254752 -1.1971780127324418 0.023305927724719715
C -0.24472042350878886 -0.5363072193475066 -0.17374900245197208
C 0.8306965210221104 0.10289874136514505 -0.5364435306339639
C 0.8033852482618372 1.2037564642069392 -1.5336360555590105
C 2.1267068165901257 -0.28070476001490174 0.0660495898836499
C 2.756273659961847 0.8549295879733495 0.7975728561881202
C 4.072422156865062 0.8930844189093882 0.937970608903122
C 5.348364624507264 0.6301535016210495 0.8713506749634354
H -5.0011905227951114 -2.4631806672938583 0.4296254440463719
H -4.61444091214327 1.0843280170062317 -0.11311029382007316
H -3.2137102402510274 1.046978677262836 1.0953405333626451
H -2.8622919142344205 0.8538552617831165 -0.6531309467352593
H -2.5921832998812193 -2.6509511528484744 0.7182922968048179
H -0.11629581199313442 1.014426833748536 -2.1622171235201413
H 1.670082779566746 1.1775971671099597 -2.2163524775959793
H 0.6337966208159811 2.197322943628972 -1.0710981744526504
H 2.7751414512136447 -0.6274251681051225 -0.7726511956634351
H 2.023998150033974 -1.1040005109421804 0.7985756429633485
H 5.792277161820497 0.07509333512394249 1.6755796131223055
H 5.9576920905867 0.9414677718879282 0.053470074183831526
