16

C 2.470529318995058 0.9428488277902551 0.3209254661406924
C 1.3643705328444393 1.3737057594395787 -0.30401023083574924
C 0.22839839021753358 0.47013816477156606 -0.44054234537586556
C 0.5479101850317529 -0.9011928762553911 -0.9133465060093714
C -0.7401307198318751 0.49331136732350694 0.6924603580219326
C -1.8457990936377497 -0.49588165298006204 0.38678626058679
H 2.5289792893819865 -0.05980303380830717 0.721755417493864
H 1.301898360344259 2.3742658661864064 -0.7057209088315632
H 0.32027939953886186 -0.9798861054352236 -1.998811016448756
H -0.02127767155275405 -1.68130386491235 -0.3499446546892395
H 1.6267366899639024 -1.1094370770896007 -0.7768440487991507
H -1.1491819420667144 1.541567140391187 0.782730713110703
H -0.2436313057432688 0.22714835934499364 1.6595144329246334
H -1.7235053049090678 -1.4034065651128769 1.023251618711061
H -2.815210027949869 0.02024510223197015 0.5706123685216791
H -1.850366100626544 -0.8123194118856619 -0.6688169245216407
