16

C -3.0267985147825267 -0.7251543347929669 0.552701808554389
C -1.797445018873604 -0.2783518268735893 0.7621412459470902
C -0.7915031712258551 -0.5090115459389589 -0.32716535051363427
C 0.4112540231631577 0.2269083004747134 -0.10849651474735782
C 0.4193103809649242 1.688296689133047 -0.01662933740278382
C 1.4973371001473799 -0.48645007220794817 0.000921338699395236
C 2.679375692783259 -0.9850791421688415 -0.1847889629199626
H -3.3052136426554894 -1.2355493529557615 -0.35992070648758184
H -1.5370064646267887 0.2260682546442699 1.6729040658122798
H -1.351882586026903 -0.23178337179986847 -1.2727021776010927
H -0.6972820053087946 -1.612654170546407 -0.39959696157029245
H -0.10462936348045798 1.9843625940538219 0.9362160432270723
H -0.1407076302485181 2.1932495715211644 -0.8265041407135567
H 1.4371260065371718 2.1265953087128513 -0.01982366685520738
H 3.164148277319776 -1.0958328802679773 -1.1074083216436368
H 3.143916916313287 -1.2856140209875053 0.6981516382148615
