22

C -3.4017809931777263 -1.3306909946695256 1.569796832662334
C -3.4474835957840213 -0.6893663058491646 0.44804694260058014
C -2.2826928556687487 -0.368026649947164 -0.3426216424726279
C -2.4170904335201087 0.3731316877540052 -1.6232676000891157
C -1.0854159576047337 -0.7197369822642573 0.0469266524286753
C 0.104823257945778 -0.40743431650076367 -0.7327089338555334
C 0.8918054244311373 0.48369420303484056 -0.2025734497504811
C 1.6901840730971276 1.318020507817512 0.4338926352322862
C 2.6371972618831263 0.7203027302674454 1.3186500081642551
C 3.644012647155258 0.0826292112223734 0.7671402930997104
C 4.605891314378533 -0.5304521400387728 0.1319740215172277
H -2.5476712207401415 -1.712080973504697 2.0777193598508243
H -4.447549435343005 -0.37848447760944226 0.09252879720856047
H -2.4367561314652386 1.4582555003970377 -1.3517986008349754
H -1.5753136790550777 0.1291561265888814 -2.274731790711503
H -3.4110129709464703 0.16338669075065823 -2.089370045263194
H -0.9820279585469113 -1.2614732394938548 0.9820031461100911
H 0.41232538334262187 -0.8004184943584088 -1.6545224072451945
H 1.5111223084055256 2.329700797229658 0.19461476595147262
H 2.6578772884020476 0.708796048166608 2.3837079876266047
H 4.424712969011109 -1.5528504407374504 -0.08639536524414698
H 5.454843303800336 0.07562635338061376 -0.08901160698582006
