36

C -1.548689467895516 3.0873635630848564 -1.1430352254201641
C -2.3903259470714593 2.329458506754009 -0.4249895265474624
C -3.5831256125794724 2.772597586138987 0.2784908448843894
C -4.1758485528785085 1.7642856461639975 0.8823823573552652
C -3.4516927700171594 0.5194408319101296 0.6572957799176943
C -3.7613318486543417 -0.6654929397656393 1.1089885189904773
C -4.261121507674599 -1.8611414789935197 1.24218041104285
C -4.935681111643923 -2.939931127024131 1.5355389209029886
C -6.005995330498094 -3.4722625557783546 0.6470821243396105
C -2.300439864929188 0.8946561044707251 -0.18789122264860328
C -1.4030923345904387 0.05810961837936671 -0.6129026827503892
C -0.24110958147469225 0.3403099048527189 -1.4459047908180154
C 0.9902574075086567 0.7122073709554693 -0.646571364363
C 2.133136994389496 0.9863805286606854 -1.5452950020415923
C 3.2176254030643245 0.24746261127946395 -1.425844227494061
C 3.3052336879208646 -0.8082910793308897 -0.44688741225025497
C 4.3372339173412575 -0.8927295772809404 0.3677604163177269
C 5.509987309277474 -1.1251766549413778 0.88126899632136
C 6.718285598031057 -1.3057220841884645 1.335917327193023
C 7.658229747293223 -0.171906265192181 1.2950175927723493
H -1.719360971192795 4.148394622886983 -1.248952179405855
H -3.9195950081870428 3.804436711273331 0.28920024570565106
H -5.089136124738051 1.8829275163061094 1.466679025867795
H -6.100559002293147 -4.569557081254095 0.7189321170028954
H -6.967277246743069 -2.937496409945681 0.8036341140036627
H -5.687398814202762 -3.1960484080520204 -0.4004509701251351
H -0.4831693933267967 1.1251427588294503 -2.1805050739343366
H 0.028610714377683588 -0.6100178540195315 -1.9887903703668584
H 1.250230807791364 -0.032857106929314504 0.10548697303006738
H 0.7665037747385521 1.6741223937988923 -0.12059557391913424
H 2.098946580367979 1.7834443152414299 -2.301827008192746
H 4.072895884036479 0.4419948641345425 -2.0880305654525353
H 2.5494101007040864 -1.5769726553179209 -0.3228998666558283
H 6.962613644816433 -2.2907819362267685 1.721558554440804
H 7.872172266499369 0.19246108451508898 0.2720418197690457
H 8.553576652431625 -0.30881132539554096 1.9156313184329763
