36

C 0.6629294242617971 2.6962138173832115 -0.5883610208760441
C -0.580981528055786 2.3444357751271614 -0.23824766305140313
C -1.6626303032084255 3.263876820072355 0.08412641781190557
C -2.757423143097463 2.578183247581592 0.38673883711360113
C -2.5030296747770904 1.1453462248382946 0.2931003743290961
C -3.3021183575042414 0.13821534473929628 0.5065643502962258
C -4.2269524895922475 -0.7705807612242714 0.5672678860491011
C -5.156591359315747 -1.6478099510482447 0.8134708721023307
C -6.548857849692266 -1.303485252622143 1.1967791034230524
C -1.1146113448286032 1.0072801119867938 -0.10543318741511878
C -0.4220368519755034 -0.08778800796725032 -0.3192434542939951
C -0.9227949963061076 -1.4583146936397307 -0.19629957845620913
C 0.29921061750583816 -2.3832123168826866 -0.17305248016390937
C 1.0468793383468546 -2.1854017946118245 -1.4579379151315126
C 2.300460070483094 -1.7667567416838135 -1.4525425310433202
C 3.0204515299030392 -1.476401690268909 -0.21025160973497153
C 3.7226052081282472 -0.3826360447167148 -0.06242112499827727
C 4.648960689340509 0.5275263914909712 -0.03302314645276281
C 5.495253626703478 1.4994723701690051 0.1578276805998514
C 6.935266116375235 1.1974872105245213 -0.0032707509202160104
H 0.9585772167866031 3.725210817565274 -0.6577377877687085
H -1.5610088249511602 4.3487746571202655 0.07099554780928577
H -3.7080636114039733 3.0096082505513095 0.6645492309614168
H -4.881243769321379 -2.689490906208504 0.7290934303308637
H -7.063059057442804 -0.9258249293013628 0.2903678619711783
H -6.560639857398908 -0.48359052557238036 1.9578569247853161
H -1.631384487161274 -1.7665377856212905 -0.9780703735871463
H -1.4411079648940828 -1.5448571878185269 0.7903891718133249
H -0.0030226059895058777 -3.449416637994505 -0.1263692576606416
H 0.9183077807656527 -2.169437102519609 0.7078049812165106
H 0.5401755495059611 -2.3913808735906885 -2.372508927244168
H 2.7908914442022015 -1.6414371988043357 -2.405756442606707
H 2.969641693209436 -2.1757603449674874 0.5928932040112075
H 5.128205233299755 2.4921443061123787 0.4263562502925197
H 7.491052833495521 2.155292371352598 -0.07423639281534039
H 7.118689704599083 0.5710530304535005 -0.9032130035562065
