26

C -2.0914891316108624 2.9186237393798806 -0.8668598391544718
C -2.4627638806667735 2.340175666207174 0.24892816147006216
C -2.262334733995808 0.8756822215275205 0.46374886750307026
C -0.9723553455190243 0.6229118452753466 1.1743136833280976
C -0.7738481006866581 -0.8075177452182506 1.3855119508629536
C -1.352154518949077 -1.6640191409311231 0.5950093403985979
C -1.8132824628817594 -2.45810488845416 -0.30082460917653725
C -1.995040649200774 -3.3894691821391 -1.1881652821894757
C 0.2041758806665378 1.2982653854291495 0.5055916508223874
C 1.4381521999068556 1.0273789303276823 1.2274292470376937
C 2.0860010259654667 -0.06887308755536135 0.8768842524499145
C 2.696113069330561 -1.1221263994658173 0.38370413532319975
C 3.597776278118775 -0.8691987559302821 -0.7322623589503012
H -2.2449612051836785 3.9702471353622926 -0.9992754155802459
H -2.924456843845976 2.9163071258724527 1.040642617863259
H -2.2127597597009907 0.40454369162110676 -0.5354748481913176
H -1.0582173242034916 1.0992171339844619 2.1937614429960743
H -1.644692603446707 -3.2687548463242746 -2.2134153575050792
H -2.4959342618363505 -4.332162673676185 -0.9804686916922569
H 0.24950949342641832 0.9013378188288611 -0.5296540547083386
H 0.037474141171084524 2.387736490070623 0.46377437854187714
H 1.9221919256871167 1.5583253958288765 1.9959310184851626
H 2.440910219226715 -2.0202159019621972 0.874229926746461
H 4.28271270503456 -0.031123777374427074 -0.4408525571708752
H 4.254419031464388 -1.7499347254983832 -0.9249275531448612
H 3.09485485172969 -0.5392514551858663 -1.6639363287705404
