32

C -5.469933176591355 0.8647884563271164 -1.5358087058698229
C -4.285906594276218 0.48243446717273064 -1.0081875359923658
C -4.228011213182172 -0.4239562433324325 0.11091954877402473
C -3.0999164230955736 -0.815838976462106 0.6477114704704616
C -3.025847342210176 -1.7526960173113917 1.805121921421602
C -1.8774421583724872 -0.2922949685273734 0.061526942585691725
C -1.8554049483181172 0.5381952564464668 -0.9603125293151995
C -0.5426054005240675 1.0096819795431815 -1.4780386906740892
C 0.5400954441302676 0.5727030993964831 -0.8878260045723074
C 1.9109249725032011 0.926229886425291 -1.2574730832944132
C 2.855969603413267 -0.03156223409906959 -0.665425628241769
C 3.813708461356068 0.3098104921879286 0.17644731721318777
C 4.738312499890042 -0.6816461746062125 0.7456650484687493
C 4.662578772505058 -0.7271600486035911 2.2295741596728655
C 3.5294178904364872 -1.0983743579912832 2.7977926492497165
C -3.0806952419917817 1.0275650799210547 -1.6218728282540087
H -5.473917228862989 1.5417147554729036 -2.369716081588467
H -2.4412216151747352 -1.2024156558876609 2.595713767051365
H -2.3961622641012297 -2.60067484337959 1.489764260371068
H -4.030068018359177 -2.016112447264065 2.1340053277294198
H -0.8997924363780838 -0.5982474845922063 0.4852743362186814
H -0.5369394918615403 1.6841405927160131 -2.3085185200154545
H 1.9822926749530991 0.9649654155078683 -2.3755327744139376
H 2.144797347884908 1.968932090883806 -0.9247753418330902
H 2.761072872642236 -1.0763263337500717 -0.9352079990004109
H 3.9421963859024847 1.3498454973794978 0.4726844679188224
H 4.540605289920367 -1.7039186628804273 0.32395016638032975
H 5.778506170851425 -0.43375230376841906 0.4158813027241189
H 2.6872825647430196 -1.3594830400802491 2.1886681722617474
H 3.424116553383153 -1.147602362569411 3.879463979759154
H -3.025307409253511 2.161513858705644 -1.5028960855049012
H -3.042706541961763 0.8614520067397154 -2.728573029700678
