25

C 4.176758655669455 0.4722802419469217 0.4402461015354414
C 2.8996208979406033 0.18643610506887065 0.45680906675929434
C 1.9460169717142894 0.8960563962724938 -0.36768609678169645
C 0.6513086241261925 0.63049212162649 -0.37377493758706953
C -0.22568132053963444 1.4254321419990603 -1.2605959608713917
C -1.5367268024008842 1.7787045577764187 -0.6000424192772913
C -2.1716319028017645 0.553448751013821 -0.11743838391934364
C -1.4385086473401656 -0.43947822699556066 0.36376478279674435
C -2.191012151844591 -1.65810421295676 0.835085444594361
C 0.029106564310470224 -0.4207454504814244 0.4607252171936663
C 0.579394808072808 -1.7844294287741926 0.10878885457414492
H 4.5469829950939555 1.2595423695226409 -0.20318795691941943
H 2.5549615834073696 -0.5953157542636842 1.1011427969331815
H 2.365556172989928 1.689408986548563 -1.0064379242836468
H 0.24502989513283877 2.3420169723350184 -1.6417365585062125
H -0.4808989810179768 0.7584204336487884 -2.132000517615999
H -2.1790927992720075 2.217091933814448 -1.4090712692189447
H -1.372288073274929 2.496908263274716 0.23060539607122296
H -3.272452109732766 0.4449434936399045 -0.15013442030709748
H -1.737084153353204 -2.0707451877158465 1.7681328372180816
H -2.2180083436069227 -2.383429115872316 0.007025536697313981
H -3.2325369332649583 -1.3794037089783888 1.1140293956562557
H 0.9318453452517393 -2.354727987850329 0.9803962334666456
H 1.3423725870046648 -1.641978180017649 -0.6816841460084174
H -0.21303288226445039 -2.422825514582025 -0.3659057706481024
