44

C 5.795381106247412 0.9349780445215319 0.4089270831376499
C 4.9867767738116076 1.9554555173699637 0.5885499020026277
C 4.165629471642897 2.44768368640063 -0.5416549162456258
C 3.842395296738198 1.418720965886935 -1.493428764660333
C 2.962064179762181 0.5854866195310725 -1.0265246350740116
C 2.3125604315748847 -0.4621866293771106 -0.6340183254574747
C 2.742612589300992 -1.679483840501496 -0.01097551999678035
C 1.6919071560075405 -2.444115909066147 0.1953736670143416
C 0.510534360849736 -1.7346738137692912 -0.29819305142015323
C 0.9125817902543315 -0.5474401542401094 -0.7906796582074014
C -0.12447057416477676 0.37084858666898285 -1.3575822902496144
C -1.308125156201508 0.3185961340177059 -0.42424029347645803
C -1.6528782103674837 -0.8525845804048248 0.05662140824869904
C -2.794611788937513 -0.7846385089653889 0.9399878992608395
C -3.185999377289653 0.48545599759990593 1.0122491926461346
C -2.2586386728868173 1.2559507556757243 0.14655096225517836
C -2.2841192250707443 2.556634732715636 -0.07193507496108266
C -3.28823258667528 3.3932520935825456 0.559197029309902
C -3.3037810431172634 4.695488925708575 0.33266496337211315
C -3.190845872699823 -2.055987312624794 1.5565873023703314
C -2.500106560340924 -3.124390984501332 1.2781240593539847
C -1.3283494821470385 -3.2705040330340145 0.40627284803385283
C -1.6376592582491234 -4.382199181479798 -0.5875188604986231
C -0.9352661101311053 -2.058726885642891 -0.35318410377012666
H 6.422928891762893 0.5203226502391908 1.1798292314488912
H 4.923232634167908 2.4269180924910323 1.5465988523870866
H 4.765451066300002 3.237023326385958 -1.0451746108597726
H 3.227278593966005 2.9532140919930905 -0.1450093474380536
H 4.282628802747911 1.3736536214441646 -2.4394546052196233
H 3.784125417890877 -1.9168970768990754 0.24467169007765574
H 1.6789192610711645 -3.4221466559984854 0.6461494849319704
H -0.4345911372239055 -0.008674077448124894 -2.342831156252108
H 0.22354470257334227 1.412218284181484 -1.385811065869001
H -4.018932740047859 0.842341862954349 1.5971479368691117
H -1.5588512114560888 3.002554229532545 -0.7202915508235044
H -4.023369938132282 2.9583567334173497 1.2132369361452569
H -2.5589676793773135 5.141887398573286 -0.3310488950172696
H -4.011838272454775 5.366157463799659 0.7629096413063486
H -4.0541416105982915 -2.0574537853963335 2.22881703432022
H -2.8401463175076436 -4.054963607932366 1.764225537204872
H -0.4292401906910655 -3.625220415672921 0.9739019496723327
H -2.414064526620425 -5.073901733736498 -0.18929081512180568
H -1.9416434319388916 -3.9151444714005574 -1.5453567970624114
H -1.1516815523437176 -2.181866156600029 -1.4662999526031126
