9

C 1.4242497555232738 0.7668457079434822 -0.029841390538293506
C 0.5657917580117465 -0.47907895026651676 0.009744737935835347
C -0.8733666347659034 -0.05206204699601318 -0.0037479629518875858
H 0.8506360217971001 1.57796845307609 -0.5025596646003216
H 0.8372433247961361 -1.022181497222175 0.9446349319923774
H 0.8558753613463367 -1.1003570484076692 -0.8571082554315759
H -1.171370381504231 0.1126098083885251 1.0644698002203519
H -1.5441283878389607 -0.7395619039312349 -0.5238727612324788
H -0.9449308173654962 0.935817477415512 -0.5328702559018142
