26

C 5.169382998661273 1.843453236796907 -0.2250731284099288
C 4.2510994349339795 0.9576778404985857 0.07284921853763238
C 3.6257923920669226 -0.1672511912021956 0.3782383526384281
C 2.9505616483783297 -0.8539619801053292 -0.6926293943930955
C 1.6649970181975002 -0.634626397492221 -0.8842126584063461
C 0.9531722321169254 0.3029190593785527 -0.0028802791213706036
C -0.45267131377286507 -0.09529287515317487 0.21896348156615994
C -1.3991430569241154 0.710362319518622 -0.1334044371769053
C -2.4331123442886122 1.4881977443061805 -0.23156896758802284
C -3.213233507033646 2.5449321013458057 -0.19435934361872503
C -4.28901882622605 2.601465735566221 0.8006903132887724
C -0.6958565824921286 -1.4199194498442276 0.8441779047343642
C -1.4597977226869903 -2.3290446348935534 -0.04853889446714769
C -1.4446823703537566 -3.6285101416518613 0.23713782861345642
H 6.148758089215055 1.517768512669916 -0.575228164308145
H 3.6305271659874 -0.535765645934423 1.3692093700028718
H 3.501718639349087 -1.5500050279896247 -1.3388299131780481
H 0.9958890719903263 1.303376197832379 -0.5027059948567488
H 1.442245089164945 0.41986402314540383 0.9895389661390563
H -3.095403215362109 3.376841251104045 -0.8680450100552861
H -4.578247230746849 3.6414845172555883 1.0542040192155404
H -5.189792381573878 2.109071076316698 0.38438482521714573
H -1.164235371489521 -1.3312062268751121 1.845527574639753
H -2.0040156013725077 -1.9351315950567152 -0.8963963463875954
H -0.9187640975089273 -4.043536389932711 1.0634553639976034
H -1.9961701582298474 -4.293162059603854 -0.40562471841711223
