14

C 0.2762894639753419 -2.111669553444085 0.9249303656437629
C 0.3783716380338583 -0.8804372758287654 0.43163036786930187
C -0.6024547739464741 -0.3448819102167347 -0.5277028232504895
C -1.7614484544585312 0.3521906324980375 0.11162100410692914
C 1.474695496412593 -0.034580054724949995 0.8381216112816108
C 1.5867707598361362 1.1798745393495098 0.3598371520813087
H -0.49626600307051694 -2.801142319793978 0.6814838268626808
H -0.18337307019802881 0.14164507183349448 -1.3990042990548783
H -2.6926594743269936 -0.19114631098035964 -0.19186087290810225
H -1.6196730228076355 0.3273045217946911 1.2239016005618304
H -1.810913828526962 1.3959097730560184 -0.27603775583587375
H 2.201142247642766 -0.4134906104739711 1.540389828912134
H 0.8550351002155118 1.5408157868076666 -0.3379984799196762
H 2.3944839212190088 1.8396077101234514 0.6424550971518322
