24

C 5.668461622025063 0.8850801551253145 -1.2171041228396138
C 4.932419939645697 -0.07893933483589825 -0.6438125937091357
C 4.514599684159858 -0.026900600487497085 0.7236510394742819
C 3.2463184196938233 0.2602010039921469 0.9310266377470069
C 1.9377616966419635 0.44718024649578764 1.0235334491204395
C 1.1391727295428993 -0.7229011777825565 0.9950190720088012
C 0.1547497374537805 -0.7806707510109147 0.14589169518367187
C -0.8814052079410611 -0.6613989519253884 -0.6632377609274552
C -2.0845477405053923 -0.06549812532324527 -0.09420870675084352
C -2.9559887268162495 0.4036708654835596 -1.2063898666597022
C -4.261196621027263 0.4076743848196827 -1.0170824751614262
C -4.865927205319099 -0.037086869734584 0.2564226759903332
H 5.941790352203579 1.720239491835339 -0.6002848205695455
H 4.682949700385101 -0.9051101708393419 -1.3179261897241197
H 5.05697684768691 -0.18314316076516265 1.6158509636548575
H 1.6875731036857458 1.4692874232288782 1.1054673361744343
H 1.252411540346861 -1.571979940681813 1.5983136210866473
H -0.6857526377871023 -1.0224261517431568 -1.6310329445472662
H -1.8699620027782968 0.8532198602950184 0.5257302666137055
H -2.6279965369846106 -0.767591961116924 0.5857181777269768
H -4.900763295687288 0.745896095380531 -1.8171704733710818
H -4.966364061226023 -1.1465388687409248 0.30666475302354607
H -4.263158830048515 0.31765466108054424 1.1422838365629022
H -5.852122507349626 0.4600818772501605 0.37137924677976225
