13

C -1.3161776565822054 1.2238621982828266 -0.10005071479739353
C -2.055353321407974 0.14423057623453994 -0.19976258691532295
C -1.523984268931473 -1.153523318636261 -0.6303344218396484
C -0.16043025980997105 -1.4376686922155109 -0.18984195829487202
C 0.7245693526892926 -0.461776156275483 -0.1999062093010048
C 1.7652878510126415 0.29041274703120873 -0.31412396619034805
C 2.8738038363080127 0.9559291934194724 -0.5457884452241037
H -1.6964207096332038 2.172986783411833 0.21300697433290952
H -3.1084299384516636 0.22127932793892569 0.04930833063502389
H -2.2169517440293127 -1.9732274576946016 -0.34720448137967735
H 0.08740514467704642 -2.44073704240205 0.13286176801736804
H 2.7779645933117756 1.9983857729314574 -0.7353562829271889
H 3.848717120847019 0.4598460679736757 -0.5434989185437655
