15

C 1.9713137611331735 -1.718381960345058 -0.8953229701057706
C 1.1523924225593314 -1.3751476350205718 0.0767087991477878
C 0.16646261490011444 -0.3625344205174012 -0.17511463982381112
C 0.6167351978244261 0.8479284171611169 -0.23648533474895503
C 1.078068979644255 2.0856610824263124 -0.35976162026207065
C -1.273225357342654 -0.5269627633928802 -0.3696782275577577
C -1.9473270837358634 0.7786201266863284 -0.6060924713485089
H 2.7413831641880915 -2.463830948613265 -0.8064950620740484
H 1.2642207729974089 -1.8751274386460515 1.0190231827585159
H 1.3566884710735094 2.363630524850271 -1.334367376326028
H 1.0901792864744366 2.600514055426904 0.5591917944445834
H -1.391666333658577 -1.1620921252102512 -1.2876863897375892
H -1.7652079415933017 -1.0988790900289107 0.45287232730517296
H -2.737601831796977 0.6752257766863984 -1.3748080170466126
H -2.3224161226672595 1.2313763985370039 0.33527193325568605
