34

C -4.453260829508262 -1.7994521233856529 1.4537869188798835
C -4.815128794917626 -1.0379393323934882 0.43591641279180315
C -6.237910136246657 -1.030281096253483 0.04196194955607163
C -3.8290545310305437 -0.24690864380201896 -0.2531873341209808
C -2.560809571222347 -0.27199367146024905 0.1199198905213914
C -1.536923103092921 0.5186698774551531 -0.5585253620326531
C -0.2775100477781003 0.5117585103385291 -0.209842274466339
C 0.7035095434116165 1.3356405133567593 -0.9399956559950028
C 1.7170069686678489 0.5278184886894649 -1.6444137016844411
C 2.7423891162999325 0.03925722178636169 -1.00910221920972
C 3.7463123044176485 -0.5150852250754713 -0.3917075104093489
C 4.678400304923725 -1.0378587823460335 0.33549308715550785
C 5.023187069234964 -2.469470018578437 0.23724351899032503
C 1.3256319078308276 2.3019571522670095 0.046133343126565474
C 2.0168579766135273 1.6246751177471583 1.156851739451992
C 3.0096759112218567 2.2472510270583137 1.7957326888933436
H -5.119135945596803 -2.4192073014394238 2.022512980398836
H -6.273183443986507 -0.9061729443438096 -1.06018289707534
H -6.716974491032289 -0.16087502120853817 0.5277979906421277
H -6.723166875043372 -1.990878511133278 0.30221364034447173
H -4.086362812742271 0.38850975221412637 -1.0903742779814318
H -2.2315035062495543 -0.8841268311950287 0.9484473738339113
H -1.8402515521013967 1.1407647014202058 -1.3919817773454848
H 0.10842371698851835 -0.08680733286973448 0.6175268562712644
H 0.15111470972326682 1.959398253042027 -1.6699881192597097
H 1.607804820031098 0.33836537634077674 -2.7022170057603896
H 5.214589181639576 -0.41941967863121693 1.026441229968775
H 6.03515204768117 -2.6750216101502144 0.6621536080124959
H 4.257621330399922 -3.0923952468347533 0.7557844443688607
H 5.000654278239903 -2.821200219069407 -0.8356830812300472
H 0.5034217682078826 2.923941695037338 0.45819865282876765
H 2.001240518385506 2.973608398121007 -0.5296686073807728
H 3.310759696454108 3.248373527037578 1.5024767227945235
H 3.5474224701760404 1.785103978258204 2.6210139654239324
