21

C 2.775193415293109 1.4168937523789387 1.0987938162897273
C 3.2044358116366323 0.22059847067691446 0.2767793502761423
C 2.5871455229843296 0.283619726072973 -1.0753981526475016
C 1.110149001597652 0.3002078386398473 -1.0739401268185693
C 0.46128273790727686 0.03117238612625361 0.031216617020473337
C -1.007552950686313 0.05553854634562794 0.0010772146045195234
C -1.7645831590337615 -0.19900530875095848 1.0532022956380869
C -3.1835419027941407 -0.08878506839096556 0.6776031124275024
C -3.136802524179227 0.2692454329805549 -0.7555494657591054
C -1.872632413529371 0.3447003434104757 -1.1150578470325876
H 3.419847363844082 1.4273089028744506 2.015063158726403
H 4.322256900502931 0.1451660940020264 0.2366134069362068
H 2.878210870195817 -0.7085985914375077 0.7844629770545323
H 3.029287020214133 1.0344583791454425 -1.744745677688903
H 0.5285736561825601 0.5306004356348045 -1.9655765417377074
H 0.9364534548256009 -0.20709766190806836 0.9629674283469535
H -1.4322253355042274 -0.4526454388665483 2.0518370345046124
H -3.675550008824606 -1.0830440879919143 0.7789653561579268
H -3.6845507446921326 0.6863245585353149 1.2909457271892941
H -4.003149170845065 0.4445458427382648 -1.4164786051818374
H -1.4922475450952692 0.5899635117014096 -2.1127810783062504
