22

C 3.996604535929454 -0.04068729076593 0.7311229395544774
C 2.8972458589469383 -0.37601332689015216 1.395621983820719
C 1.7324882025150736 0.5422165844152724 1.3446369863969954
C 0.5117475823930482 -0.0765841970205486 0.8205232157217562
C 0.11886655336855004 0.04972405457367828 -0.4397379332122623
C 0.9192436051276487 0.8541679735579454 -1.4333733868997842
C -1.1147362083041072 -0.5814111705555283 -0.9498000341353743
C -1.626271920440733 -1.6382876901706074 -0.05774088737670438
C -2.8559254508933405 -1.309172682701581 0.24730967337950002
C -3.2316097698610973 -0.04293357754993906 -0.406632874427548
C -2.211341164013087 0.3992117771324496 -1.1181558847313646
H 4.065445810732457 0.8791212320870663 0.15664818994158275
H 2.9191383027808837 -1.3110127016952229 1.9406826692559438
H 1.5768196689035385 1.03640704748801 2.3310778617596877
H -0.10768494813532416 -0.6677133193583297 1.484026530691698
H 0.45150286142050844 1.8605589008424848 -1.5695852179015355
H 0.8619795105561553 0.33012040642778623 -2.4163028438609984
H 1.9731204894605108 0.9109667841876657 -1.1506769949662223
H -1.0471029888598742 -2.4941311368077823 0.24776915799292956
H -3.5127087113518276 -1.8857306651716104 0.892443862032753
H -4.1887440116079775 0.4615285881264984 -0.3283110369198737
H -2.1280778086673307 1.2861052807296414 -1.721545976116377
