19

C -5.045980858312117 -0.4312393840416705 -0.14245099451126608
C -3.7701261381261824 -0.20160963864978468 -0.3640369652997147
C -2.7330764631615643 -0.984238955749119 0.33675718339994054
C -1.8800850300038543 -0.08007353795515947 1.090455251535277
C -0.9398915090854592 0.5205426919028788 0.3930152030770096
C 0.03893884140666276 0.9963353939299531 -0.34491328281818734
C 1.2210063957669441 0.20842792203928281 -0.411425072913731
C 2.4569713208162436 0.6909668340649102 -0.29920212398108137
C 3.6282866882272145 -0.1507486427873604 -0.37358493127700493
C 4.816976623883869 0.38621951940653443 -0.25552328517097267
H -5.392064288618098 -1.187317791125342 0.5481952355347113
H -3.4730640317265538 0.5586472194685506 -1.0579743113268654
H -2.169925902646932 -1.6337395441011302 -0.37875728490015476
H -1.8836196791628579 0.17893338424171185 2.1074897983927796
H -0.19948509177513127 1.9197978126536204 -0.7959488598010398
H 1.1234917828455788 -0.8587123963919738 -0.5634520733469155
H 3.5114069910912757 -1.2011768419231619 -0.5239914229970027
H 4.945286181351144 1.458097922028526 -0.10172217705554985
H 5.744954167230107 -0.1891119670112554 -0.301719622497048
