28

C 3.7669241932828084 3.860074484450725 0.4032057307142697
C 3.798617871623975 2.5635165285966957 0.3033258911761297
C 3.732918799384682 1.269457411905685 0.3977687749521058
C 3.7778924647135868 -0.025712948905933442 0.22320361372066644
C 2.519102514189723 -0.7397975671268854 0.008407842342681217
C 1.4204295398074753 -0.27115443971089803 -0.6150076359343342
C 0.4800340415076716 -1.332102294888333 -0.5648718821369929
C -0.7126876519669589 -1.2397989985198492 -1.06951633733322
C -1.951431892054285 -1.1584022615107201 -1.4782047335835473
C -2.9001381679861704 -0.6706882785398152 -0.5270167395484666
C -4.183836509809469 -0.5741492899811924 -0.9144209239190776
C -2.5508229889186023 -0.267987494947488 0.8526598334520236
C -1.5513271913227418 0.8530363914637563 0.7432485949164924
C -1.9345572130440927 2.0953315045481626 0.4971062594129542
C 1.0033485896467143 -2.4711155671443947 0.0976985568572947
C 2.2565620825806256 -2.10710294524923 0.45004487875789617
H 4.469183934601896 4.454602696471606 -0.16667857611990977
H 4.7266337646241325 -0.5470218521055731 0.23889639907367485
H 1.3903853957323473 0.7257965878508184 -1.0249684332802165
H -2.075200657271985 -1.4722663645183993 -2.4759248669962113
H -4.476897812381787 -0.8609035909088834 -1.9206350216004275
H -4.909105327493177 -0.20714834749684802 -0.20465199212405438
H -3.4205256348209536 0.15301632535385654 1.374313808668956
H -2.108479690184216 -1.106794830497588 1.437536415300427
H -2.954817206712528 2.41249676451134 0.35698859538498506
H -1.1578582910590551 2.845611270193898 0.43290564406803933
H 0.5801868794640667 -3.4414779391741765 0.3170689999308524
H 2.9654661638666773 -2.7393149541202013 0.9839805675489878
