32

C -2.0717788822611802 -1.8078010479809594 -0.07677448362506803
C -2.2307596526846436 -0.628810911702568 -0.6423199828132116
C -3.0181586014562196 -0.4899585990127251 -1.879815559150746
C -1.613319861864953 0.5647371764638653 -0.02918942671518131
C -0.667066089552326 1.202531925720667 -0.9638897928657951
C 0.598742485842226 0.8200814692645655 -0.8931224632584328
C 1.7327525218405258 0.26890777953722633 -0.561442377489087
C 2.5649927492094964 0.9089308658983182 0.47099489346637374
C 2.124008376138642 -0.9823569133591928 -1.237768237245342
C 3.41502064782185 -0.7288100687630641 -1.929641584345746
C 4.500112378394244 -0.6569266856732102 -1.1753597294787634
C 5.405606825621141 -0.658293312813271 -0.2442303564950169
C -1.0128362494204701 0.22306371641772255 1.299267164550053
C -2.1161578042379454 -0.28557713331717965 2.169284519454082
C -3.155739941942046 0.5248656021457339 2.293327063076196
C -4.0081720013355495 1.5014297958066933 2.400690887112518
H -2.5262056000038315 -2.700219164388397 -0.5242021182252492
H -2.3150729184076972 -0.5919020196899302 -2.7466537600416006
H -3.857111996928729 -1.2104078678055958 -1.9482286114431702
H -3.4054530975978103 0.550629073107813 -1.9343362102214732
H -2.439164062505607 1.3102135994461455 0.14053547447857526
H 1.9784134013602899 1.6149422813528256 1.1072693085225742
H 3.4389296801722002 1.4510702376757592 0.05525095732981565
H 2.9765430713526344 0.10433672498314385 1.1409078120022458
H 2.315453562899553 -1.7870972614092206 -0.47074946372642795
H 1.3480614511701072 -1.313978621223258 -1.9573047956473197
H 5.898038001288982 -1.564870535055128 0.031914452387074285
H 5.652091617856781 0.2578513584142094 0.24683322528701698
H -0.3103415038824758 -0.6479658562239126 1.1800693838214769
H -0.492968594178904 1.0467251137177407 1.7789021971847976
H -3.9539841169840226 2.156698646228106 3.2432857532827004
H -4.754475795725065 1.6533450315180975 1.6564958608327673
