44

C -7.458203572919388 -1.199954834532312 2.0054986289900913
C -6.825000597873011 -1.0792752268061083 0.8394649841368076
C -5.4121637355343 -1.3661902732810332 0.7362533612625265
C -4.780462862757616 -1.2500753734712675 -0.40910235851400756
C -3.3173581246501462 -1.5517289406560562 -0.49548474719080554
C -2.5603729307783207 -0.7344919321753531 0.47457386492618975
C -1.5965863539452718 0.053753062912163106 0.07946191580103075
C -1.1951136612314446 0.19093552431514768 -1.319476883947786
C -0.21187522731225883 1.0046875698265132 -1.661416300621949
C 0.466925060300388 1.758389883669605 -0.6589329761609892
C 1.2627888761541206 1.1018554173227826 0.15883944470178368
C 2.1134046458686617 0.35793256395734124 0.808674850636959
C 3.4391414645364446 0.22605276040593297 0.2414843133958871
C 4.572333687433308 0.42305499009324454 0.8948380841602317
C 5.681360673664638 0.19277389580082036 -0.020445604176296886
C 6.973970233434986 0.2813066473323732 0.22473524856909594
C 7.395905337393664 0.6475609151310171 1.5442519620814736
C 8.514437877234517 1.3310195020438014 1.6280354738306568
C 9.646196564828994 2.005932766823728 1.6189181499290086
C 5.085774006378575 -0.16298052037921176 -1.2908241454530573
C 3.7824150780322587 -0.1394302831584501 -1.1232408643777136
C -7.551080815211161 -0.6584582461675204 -0.3344756540258202
C -8.754692305687142 -0.27166667370070474 -0.8850723650391777
C -7.618528219247025 -0.3205997189004446 -1.784702685310875
H -8.503551200356315 -0.9885984121216963 2.086164100432314
H -4.875211974230525 -1.6796892071883063 1.6167877177361127
H -5.27346769859104 -0.9409767457176984 -1.3135697873386514
H -3.203070561054092 -2.633803948732875 -0.24328190483010778
H -2.8186505386870957 -0.8019500743503936 1.5091050050743422
H -1.0630473528822852 0.6403704409359788 0.8313536835271241
H -1.7420490908650954 -0.4034299323508513 -2.0436335235908163
H 0.03990388595684106 1.064036752314212 -2.7098432834558355
H 0.43541576840490626 2.789135917950353 -0.46054618232671807
H 1.727754410906721 -0.06824432741067274 1.6849026134606178
H 4.66014953576312 0.7069412836697315 1.9326524627571107
H 7.691282870922333 0.080048112179574 -0.5573278973376151
H 6.941691588429536 0.451579839771849 2.4779615808727633
H 9.527334843539053 3.055216422789873 1.5443456559337725
H 10.51639037148532 1.4077142552017072 1.686479412445174
H 5.619399491481177 -0.3974635398303596 -2.1857609732894225
H 3.0420269973602765 -0.3598251361608985 -1.8873277294787387
H -9.815781208518162 -0.08154727909109998 -0.6934787136688016
H -7.085844052549971 0.613701697453575 -2.0543461556673783
H -7.473891184671559 -1.169018304102894 -2.492491778844578
