17

C -3.4563643575266054 -0.1695166041733757 0.03150504256586485
C -2.5950994059853256 -1.058865702060764 -0.3883888653948214
C -1.1682634569337966 -0.8387506897747719 -0.4417908433930274
C -0.6511788162340822 0.30467558585976395 -0.05776933827100961
C 0.7763843728027751 0.5748101872266068 -0.09227184085871643
C 1.4547895303696299 1.8177834420528873 -0.3812272470145185
C 1.5073901500074136 -0.46614634631149215 0.17846671866778663
C 2.2974167784966797 -1.4753535393320336 0.48446822058980865
H -3.244374258141548 0.81941877589659 0.386211851374838
H -3.01176999177401 -2.018651469143671 -0.7123982696033595
H -0.504357356435826 -1.6312837558729085 -0.8060364509961805
H -1.2657428185097088 1.1236912723390104 0.31178945023653654
H 2.316686987665788 2.054847292525515 0.2713825144539728
H 0.7187740484011708 2.658342723330363 -0.2112746466374891
H 1.7187520096927869 1.9115962630141836 -1.4754767316662754
H 2.582818021467901 -2.04316697720792 -0.3528683824886587
H 2.524138562636658 -1.563430458367927 1.5118382630133838
