24

C -1.7985279998403545 1.6140646706714479 -0.35842199640733924
C -0.5050282078897005 1.5167123127749456 -1.1105170441235779
C 0.43099196423134906 0.6628327091828227 -0.7600881878719785
C 1.8847438651841995 0.5522927093513652 -1.002527634609856
C 2.386035676108652 -0.14414929189630576 0.25581186668376593
C 1.3186266717793793 -1.1720630099545855 0.5016617098199776
C 0.07138152400003667 -0.5023292318230438 0.07991700938300274
C -0.9179032908898547 -1.3922357118024602 -0.574911420586295
C -2.1264682773588914 -0.856491470200001 -0.4100406610531283
C -2.055210431561801 0.3598502069464744 0.44706061769302746
C -0.762232098938089 0.06620056221386153 1.2243052386093014
H -2.6329876371871612 1.8223090566537108 -1.0658104322193551
H -0.39819432291918305 2.202174056745439 -1.962514989294147
H 2.395903899302297 1.532974863984399 -1.0351322729159784
H 2.135792652560356 -0.023940895931821717 -1.9041293081098587
H 2.3455380823661987 0.6227400552117732 1.0642397328939932
H 3.3775316518940937 -0.5731409096837609 0.1300923768419466
H 1.2405630809935555 -1.4031583804155356 1.604072713852126
H 1.5071129309164668 -2.104921380732555 -0.06684600218594605
H -0.7211958174259392 -2.3239604089094437 -1.103806364569487
H -3.041106771685416 -1.2433733730297027 -0.8356139800627763
H -2.874151643458762 0.4572378210829586 1.1525272402201971
H -0.9354385406771509 -0.6813316715376704 2.016182978603498
H -0.3257769595043231 1.0117067110974862 1.5856370025439295
