19

C 4.772354450927209 -0.6094250944976741 0.9837692194775961
C 3.506356488822965 -0.8404421030232507 0.6866585821795289
C 2.4956693417737044 0.20194996361036338 0.6500129141970851
C 1.2375244301996204 -0.08042515255497991 0.3461239178604509
C 0.2471400885721317 0.9640977508183376 0.31397822526028796
C -0.9899745410958222 0.7302429001708233 0.022330307812867396
C -1.5482308259077562 -0.5444187488101219 -0.3003698918699182
C -2.8275549218432423 -0.6467218918683233 -0.5791552653196006
C -3.6639145079389097 0.5733782114756053 -0.5510576016880961
H 5.133628235249109 0.37515703982548476 1.2187291257795283
H 3.221092079706428 -1.8567017456638344 0.4620856623707926
H 2.764362332836928 1.2055768309470623 0.8691099920720524
H 0.9430705928487062 -1.0906664954408045 0.12068586442410797
H 0.5084927444852505 2.0106923855475882 0.5385895882324861
H -0.9505769438699141 -1.432559748367152 -0.32311645057500593
H -3.2858279080122412 -1.584625723619007 -0.8263270450679159
H -4.176375199120534 0.6018002492641744 0.434750245752201
H -4.369107817714777 0.5538859276166552 -1.401399239029591
H -3.0181281199164145 1.469205444568897 -0.7081167216570127
