26

C -1.1095527443439066 -2.3548139083800663 0.593080285083448
C -0.20751715419643005 -1.4180353373877832 0.7656797563696898
C -0.25224907188515855 -0.20455887421812666 0.0510265530711034
C -1.2378927472691703 -0.04385832689870508 -0.7967813129262173
C -2.305842295306524 0.12977372104388402 -1.5339996479274722
C -3.450314651835348 0.7265335235314634 -0.8666532556608374
C -4.42568126190076 -0.35860561070049746 -0.43095092171578453
C 0.631422052182039 0.9229715735524863 0.10213232390199302
C 1.7789186841661988 0.824637703163328 -0.531423403118658
C 3.0180322730296907 0.6606825126175692 -0.9436868873238063
C 3.9318513886833957 -0.05484616266300128 -0.019127268713468867
C 4.608462263082934 1.0082470471293383 0.8334995644246521
H -1.1179284459064378 -3.2994582323855273 1.1160089675067704
H 0.5839790539222115 -1.60188965069808 1.4808082392157467
H -2.1696347412006047 -0.19805379103386486 -2.5205476814141248
H -3.181911345657711 1.3317086378690375 -0.00818918006679632
H -3.9797855305575944 1.3807956453999177 -1.5895364463175794
H -3.8641709709065473 -1.2903619579102268 -0.26852965099322734
H -4.936451417473207 -0.07677976823283317 0.5295077065069893
H -5.240617972147255 -0.4679136828629223 -1.1920902102226159
H 0.44110918029208757 1.8417730187536878 0.6149713940211692
H 3.4290177076928874 -0.7417980795379047 0.6614205686794832
H 4.758407382257383 -0.5488241714304513 -0.5933050502845191
H 5.51951170873934 0.6044560187052822 1.3241564625080389
H 4.90074205361309 1.8873580961550374 0.2217105064488047
H 3.8780966029262247 1.3408600564190154 1.5988693440214425
