18

C 1.5941964828468822 -0.4992264999353815 -1.1445304844973796
C 2.1178803715298478 -0.6811520281020348 0.2579032705164829
C 1.0045200858083378 -0.6520134633098155 1.2662776463627803
C 0.21324143580591617 0.5984914439595705 1.3219355300217217
C -0.5334665422418797 0.9930115756759295 0.10448984679276324
C -1.5347911329769663 -0.013013708784793307 -0.3317915134158756
C -2.8340934299894602 0.22866938373172074 -0.435433367440402
H 2.075933821346286 0.34113381010377236 -1.6841016872809795
H 2.9163374890139737 0.07235305660405206 0.4990942005196155
H 2.655730340953892 -1.6652414203768524 0.33240982252094925
H 0.3438317477762961 -1.5377247992983727 1.1754452164894762
H 1.4948971812130294 -0.7794730681906782 2.2705841600237
H -0.44801930714563437 0.6564094962352215 2.2020647520672583
H -1.1509835981433545 1.906408867126008 0.3908782251364697
H 0.07309207047436111 1.3456868857958717 -0.7507762440943915
H -1.1895165976955944 -1.004694572760724 -0.5802850240235577
H -3.540150439613395 -0.5257173932373733 -0.7565212761437612
H -3.258639978962511 1.2160924347638562 -0.1977234835921203
