20

C -2.9377531752116153 -1.3261954470951771 -0.9068643025104656
C -1.7738152345916425 -1.178018376725763 -0.31425349192877833
C -0.8217060684723948 -2.311005140532507 -0.2010926316425479
C 0.2438039875308864 -1.8623352116227603 0.43472376077813624
C 0.10709398241173884 -0.4213067106547271 0.7979740287670746
C 1.1526152105549392 0.3362624999286782 0.06052982928580959
C 1.528555429022572 1.130450132943163 -0.9874278672173359
C 2.5449151759917554 0.7428161416448777 -0.017955840208543385
C 3.789587571257388 0.797790048692363 0.37463830753635075
C -1.2218822049536635 -0.02400107489461278 0.2878387798100732
C -1.852138474682219 1.1029779107603017 0.3240343170712972
C -2.3597374543472056 2.2487805729047166 0.6665517534341765
H -3.311540120768713 -2.2205023743420336 -1.3480421758972214
H -0.946387709903621 -3.3036070495459295 -0.5551431607235484
H 1.1249836216802598 -2.4282627716652767 0.6824198787951318
H 1.1950075582845507 1.6503801767486541 -1.894743164623024
H 4.111411351844574 0.2772888383016326 1.2782973571659222
H 4.506496413538398 1.3623907495813548 -0.19874271296874707
H -2.8807933963278383 2.422306471099171 1.5585420653126048
H -2.198716462858338 3.0037906144738704 -0.0412847302362899
