31

C 5.509218090427303 0.16477393161300075 0.432545997278057
C 4.749166366334638 -0.9011973433941635 0.4733775821348149
C 3.397879052368007 -0.8383006238270472 1.0661439805290778
C 2.622155335983472 -1.8852178300755813 1.1187270399509872
C 1.324657157570539 -1.8271983808259884 1.6872680813089076
C 0.5131260006675378 -0.9300011011101978 1.1887185690045508
C -0.19959170770312507 0.009448110050068147 0.6240879723702175
C -0.11835323852551488 1.2868447090031467 1.2130651765995686
C -0.1149848250980428 2.3084007997315332 0.37776319121289004
C -0.019946471358159825 3.261086407731974 -0.5281526636589093
C 1.3285278495516546 3.57441676418047 -0.9780964512975698
C -0.949840607879136 -0.4093974050903764 -0.5076648277923671
C -2.2624033524965323 -0.2926969374423308 -0.39879197725033405
C -3.5599486210961064 -0.24312869450954389 -0.15907180336215831
C -4.130785912574903 -1.3992545938836711 0.4388904448464068
C -4.24064843689723 -2.4674613279314563 -0.3184902240525366
C -4.308977884020243 -3.486419677433048 -1.1536223509393968
H 5.2235665672977465 1.11852941475128 0.8076953474672222
H 5.0856556153868855 -1.8479477886140652 0.07841770912490059
H 3.0470066962432076 0.11012001274828241 1.4676620339256663
H 0.8742124833583725 -2.389634849801718 2.4626150880392106
H -0.056641736338658044 1.5925610707838422 2.2259101612802965
H -0.9520667804085455 3.6697626320629193 -0.8062653968298858
H 1.2684203197410615 4.503090613180843 -1.6145389123535747
H 1.8351325061313013 2.750949347659655 -1.526542211095615
H 1.9360269992055532 3.883383059777487 -0.0934803283672566
H -0.6503541521879785 -0.8036373573645208 -1.4336826345767062
H -3.992767252521387 0.673290558008719 -0.45407145404620114
H -4.493557826242171 -1.5427126252310017 1.4288392889897201
H -3.4562456647618234 -4.109275445460159 -1.149585897619266
H -5.2076365701590435 -3.5331754492874587 -1.7080605776797295
