16

C -3.108616077109839 0.2092733025020334 0.1912433285023199
C -2.094254007267583 -0.5743979712565398 0.3875516931256666
C -0.7340369527760001 -0.22520695695722856 0.12233547200438541
C -0.5230053877990197 0.9821657933351026 -0.3540831238395856
C 0.8038825019190162 1.5387905133511277 -0.6943015407681806
C 2.0000460567240217 1.2345993237803459 -0.2860089900840984
C 2.3736846863777044 0.01654956943077809 -0.023660175817855227
C 1.599342561829072 -1.1569873033820932 0.35153859103401053
C 0.2840557170472589 -1.2686963271951388 0.416188959572887
H -3.193007794809983 1.1895624798173627 -0.17049621195549886
H -2.3762840770109452 -1.571611144738164 0.7916138844445582
H -1.3429534496680267 1.658202165833067 -0.5288489334128333
H 0.8169799002916038 2.3648629049610186 -1.4243611174777795
H 3.4279320421864967 -0.15805648190935986 -0.0940604218783359
H 2.1848562976161436 -2.0152446001963478 0.5990898419476351
H -0.11862201754989737 -2.223805267375907 0.7162587446026728
