17

C -2.6525953757898604 1.0213345114074002 -0.023413930055988554
C -1.5362295042143899 0.7317562698198812 -0.6786109374490135
C -0.44281234015248927 0.04218425423822687 0.0669258145654449
C 0.527612677308503 0.9338803468846288 0.686270772102217
C 1.7872956499859558 0.7120441885710731 0.440429559649374
C 3.0144680265893173 0.42903677662187323 0.1183577804245888
C -0.8980457106611127 -1.164273463240573 0.8649070471370688
C -0.10434779797442609 -1.3096299057579557 -0.40127240599393643
H -3.5018444241079143 1.5142708266341993 -0.45666752782280795
H -1.3779243113948536 0.9691713901109308 -1.7232031062466315
H 0.33550594176084925 1.750068237548913 1.3192383364117346
H 3.503717783516458 -0.26154651168470794 0.7730527306852811
H 3.3943957026946308 0.9120324373030952 -0.7569023934803163
H -0.3247510594378835 -1.4202935457431565 1.797022781150687
H -1.9736801245118023 -1.405032306139798 0.8791949238464755
H 0.9304375349591221 -1.7046516259201157 -0.36009907151680265
H -0.6812026685702844 -1.7503518806539096 -1.2576558127580086
