11

C -1.2835592527009785 1.2723613571151322 0.017446548590028834
C -1.4041110718496577 -0.22079873021512744 -0.1482249627129466
C -0.16570531943967196 -0.8664030703561632 -0.5686631161730745
C 0.9544186697561585 -0.3031981610762198 -0.16627369857863514
C 2.0131575738038294 0.32349165196318297 0.2776531445926071
H -0.8342683297546062 1.5593395118196716 1.001571861660562
H -2.2185898510460635 -0.38618933390405513 -0.9033841822204587
H -1.789020169735758 -0.721073423270811 0.7857802670341425
H -0.021104202362319868 -1.731911089550906 -1.1568166263364252
H 2.3612742252279135 -0.005777179429197053 1.226386640082109
H 2.3875077281009403 1.0801584669045128 -0.36547587593786995
