15

C 3.574692585219184 0.5079260642437015 0.863285192324005
C 2.725808974634054 -0.3634772721997594 0.3941435611877618
C 1.7504645622554016 -1.2175950399630324 0.11783260694617508
C 0.6058180950780693 -0.6844067857661199 -0.5601777140674253
C -0.128243736923227 0.33109958436409953 -0.10034045959757439
C -1.3001957048508346 0.8188318137297281 -0.8718081862649605
C -2.516026749271366 0.6952521469827814 -0.0876981944190444
C -3.5287581010113027 0.5745980570128089 0.5624176564690024
H 3.3211132493935587 1.0112718371536007 1.7978419824448908
H 1.918728017728568 -2.217242062341366 0.4302754402009301
H 0.324568860315386 -1.1417609873826033 -1.5081864375246643
H 0.1383545147951312 0.7950077992912276 0.8387392314908977
H -1.3528103394515243 0.2581231618741812 -1.8339794581275743
H -1.104233739934192 1.8872571742921544 -1.1792852353932992
H -4.429280487978777 0.4614410394738227 1.1369400143338533
