35

C -0.9819224372354006 -0.853156974605827 -3.1212903455167567
C -0.4999016461009849 -0.3954130703964861 -2.0069891998976854
C -1.258936306069647 -0.2746344094192091 -0.7879775814748148
C -2.521468431828598 -0.6400930265337814 -0.7615288265898935
C -3.2761460351978 -0.5015909176621415 0.5170059187945963
C -4.737420240664121 -0.2408819018100517 0.27847106656974996
C -0.6105293664685171 0.2632454311399924 0.4589273623041196
C 0.08016201105611473 -0.7938094446771058 1.1935672427042883
C 1.3513042762661378 -0.7767644283634534 1.5107492207622637
C 2.2359884972428765 0.3227088299184683 1.163116958968038
C 3.6261388906103784 0.25858571220027965 1.5449691896234623
C 4.437783901917268 -0.6131865579356442 1.0265399105901258
C 5.110454401198025 -1.6687522720912351 0.7283733958597153
C 5.813455591154181 -2.5926859096777073 0.1600600122468165
C 1.6938468184516926 1.3218857570999587 0.5095783361463291
C 0.29140527908296504 1.3771499292731355 0.13454169055177745
C -0.20264117997629988 2.4528067307099017 -0.4942060620622925
C -1.6239240259877992 2.5567638582166525 -0.8705630708421097
H -1.9636669706730276 -1.198641941632441 -3.317366302117967
H 0.5484022184802987 -0.08190504991290123 -1.9934367638986388
H -3.026524374414643 -1.0364002567565038 -1.635642799758626
H -3.1895534984668092 -1.4348684829101852 1.123843929628501
H -5.181110337671524 0.018548630660590648 1.2744838930592648
H -4.889590209751454 0.6569895305217188 -0.3546280155034457
H -5.288772558574316 -1.1287736220613123 -0.0724755722628316
H -0.5261880269713276 -1.6599240148680334 1.4947089839301444
H 1.7346910446102919 -1.6463192095568944 2.0635161746772397
H 3.959980010513951 0.9884682906273008 2.2989190885728865
H 6.846964057004351 -2.807834455206888 0.4229298495181314
H 5.387106936576744 -3.2099957245418254 -0.6267736022391586
H 2.295854313660858 2.1896290518002455 0.20678030041947407
H 0.4689719390240452 3.251953848548773 -0.7227193544739944
H -1.9434539464359906 3.633066046937984 -0.9448726196310175
H -1.884116762808997 2.1151574449336144 -1.8417199755482712
H -2.276643831553427 2.1486725780325107 -0.05050793573108342
