17

C 3.134769008920476 0.5014564451358455 1.2409198420852077
C 2.680189398614183 -0.36326506586685403 0.3631797575444106
C 1.5021100460477974 -0.127313109370593 -0.5026524059545937
C 0.26218755088789125 0.23015242878665512 0.2658994794876345
C -0.8425768785931991 0.4364409716241793 -0.777313622485445
C -2.0924770863401707 0.7904452465213379 -0.10086770930139255
C -3.162991254971633 0.036481497469731276 -0.22928524438163664
H 4.000051365974125 0.2808675064456561 1.8499685343135652
H 3.184738107186792 -1.3176551087289525 0.24860470412352006
H 1.7048461007405322 0.5255336943179877 -1.3595224283188065
H 0.0010800686388080579 -0.6337298429232482 0.9200587046057979
H 0.3556392187594488 1.1076843123850888 0.9038489902599935
H -0.8884679012127291 -0.4995361599251526 -1.352668362309464
H -0.5149268953622752 1.2923442784217474 -1.4208561566053592
H -2.1274766890438266 1.6756326963360118 0.5040737380743949
H -4.076950428112622 0.3147739352394706 0.2783646849521985
H -3.1197437321337818 -0.8406569046687471 -0.8317525060899129
