20

C -3.730520791792677 -0.1533856788292811 0.23006594213512874
C -2.499476411432353 -0.6037148039159805 0.0856803142577608
C -2.1396134150026414 -2.0235091351780246 -0.0762557284887975
C -0.8028907438198921 -2.1395709724191994 -0.19852650517635387
C -0.2124287255106142 -0.809915679724458 -0.12417197613763659
C 1.0414641002143419 -0.4607075857983616 -0.19362491373317386
C 2.3094877735831347 -0.26539594424500995 0.025278615478247883
C 3.516604395186122 -0.15971885209097628 0.951485551546138
C 3.6129076805924525 0.01728350267805012 -0.49467242435104086
C -1.2809167056548665 0.12022584700899154 0.05140867604568111
C -1.2686580153627687 1.4118221434061873 0.16968133338456592
C -1.0822626168754998 2.6901683531242795 -0.008426336984654916
H -3.9605651985319597 0.8965025138876825 0.346802798084148
H -2.7720137500618 -2.8898866523260773 -0.10354038663002897
H -0.20360311259723157 -3.0282167746724045 -0.3310985036804991
H 3.392566241610118 0.7447946067674289 1.6119018107026915
H 4.199430799187959 -0.7623716297243948 -1.050016291528588
H 3.890395572388787 1.04700937071697 -0.8432215399917828
H -1.0843363621503905 3.1784435828016924 -0.9439934812643663
H -0.9255707139704726 3.1901437885328017 0.895243046332549
