30

C -0.9582000933687316 -2.1056264793937833 -1.4936604732692846
C 0.014794959107217924 -1.3493119895414247 -1.101041792748601
C 0.027508688207084398 -0.31932081850074234 -0.09524730803344143
C 1.1292415241621228 0.3475818374007387 0.1711018934146416
C 2.4184576824501933 0.2564527604038934 -0.3718870035411791
C 2.8677974707022504 -0.5361802928814187 -1.3082016812661268
C 4.209270853333018 -0.5413721864528546 -1.7851795940294841
C 5.151485557358316 -0.7990129700141999 -0.9072307755519466
C 6.022514159894565 -1.068225600976125 0.04672820285518735
C -1.1118454811749898 0.10259418025742312 0.7145166731804667
C -2.215846455957156 -0.4983665252270211 0.49787507478245474
C -3.487432668013209 -0.9035381473778709 0.38864915304808295
C -4.239850939650233 -0.24410849841880705 -0.6411648475612184
C -1.091704065317662 1.1218920086469073 1.7103638906472287
C -2.0314385125944305 2.0385659497875093 1.640024233741812
C -3.0117990747910173 2.9064703526801154 1.4836835398651191
H -1.9421275846790933 -2.2674686612313804 -1.2990198247093074
H 1.0004236168971983 -1.5161680673103137 -1.619517285574033
H 0.974473046489129 1.1235462434692516 0.986687499594742
H 3.1731403342344247 0.9639463038041932 0.05884046631101841
H 4.579910013947301 -0.36515329780049616 -2.765457890718825
H 6.3833879434168335 -0.2173510037824065 0.5575813026450633
H 6.234072941268497 -2.0971248211654667 0.163780225170611
H -3.669770649663448 -1.6485271184207568 1.0944095220434875
H -4.573036434014188 0.766173271423711 -0.268147664123949
H -5.1551850536743125 -0.7554685956635171 -0.9804619069445092
H -3.602699814023286 -0.05039533628198435 -1.544758181159406
H -0.4224747918889526 1.267566775708491 2.5246173650089947
H -2.769214192263144 3.732892806027137 0.8691460791707747
H -3.903852980376 2.6550379208361754 1.9936736336194172
