17

C 2.4222883576743457 1.439805524345091 0.2707678487503105
C 2.751383021053766 0.18333703983865046 0.05076848675631439
C 1.7358043549095306 -0.758056924849902 -0.5040533535237766
C 0.35136701557445293 -0.30876185058538197 -0.2202655114020513
C -0.4261959662166337 -1.0466103542325347 0.5220835082579839
C -1.8322832818393369 -0.6915157560314621 0.8699031063922078
C -2.250599848870079 0.63028316063285 0.25733813435891933
H 3.161400910268843 2.116305906821227 0.6723501390634506
H 3.759104323570705 -0.13920673705192327 0.2795939706608116
H 1.8962833818020424 -0.8010642383166041 -1.6010427988228386
H -0.0003869070232412512 0.626810017409628 -0.6317689874990567
H -0.06943360458886366 -1.9764827234309057 0.9282331089796584
H -1.8725785708389169 -0.6118957923452336 1.9753774607052286
H -2.4672339496790987 -1.5274235800710863 0.5101362922729276
H -3.346187050144194 0.7247116802742686 0.43666252998336086
H -2.031556537801 0.6939652906906612 -0.8075414043428949
H -1.78117564785533 1.4457993369020208 0.8547173119021003
