16

C -2.8867990807427955 -1.788672989425639 -0.17000487689874455
C -2.2582528442643297 -0.7462757638970163 0.29583495426807915
C -1.7024259420701928 0.41554203960072017 0.604125824847527
C -0.43175221298092314 0.7479919446906929 0.02048538684569122
C 0.10815582209010674 1.9111362464861124 0.33913234999852687
C 0.27490705510114166 -0.18881451271945976 -0.9260287661364444
C 1.3062878146611743 -0.9752280727518629 -0.18489437153019145
C 2.5945561052400543 -0.801934572229726 -0.42879366234749294
H -3.371231555092538 -1.679619162338161 -1.1250406645215663
H -2.257549251778938 1.0222709874745954 1.2749312888949575
H -0.39805966074867066 2.577927677949257 1.014824468926853
H 1.0781621419715606 2.1945419616013413 -0.08998522231684923
H 0.7767338461130082 0.445383383674732 -1.7053901874944677
H 0.9364657954093847 -1.6799966423015686 0.5481096670405842
H 2.898988090913151 -0.0813158437142756 -1.1743603518301176
H 3.33181387617883 -1.3729366820997284 0.10994690400355518
