26

C -6.658479572728501 1.3962258789944892 -1.6170002725204817
C -5.546221420234418 0.6907181504585278 -1.4693571752858654
C -4.297244558897179 0.35375829745873305 -1.31021928545418
C -3.734673753084506 0.2709689792062973 0.054371766202479674
C -2.8541561218235034 -0.9104176517232718 0.2248695635407627
C -1.6435710361019304 -0.9178836154535208 -0.34047745997784035
C -0.7288717069185847 -1.9845426598920357 -0.24279573191008094
C 0.38067097302679187 -1.6529619390334709 0.3395871455132668
C 1.4582081316911053 -1.5666895052945724 1.0524056707472171
C 2.5835665273064152 -1.1375118442738552 0.3134597482368959
C 2.8208103301618825 0.1508263101508611 0.14642012814089642
C 3.9481067924892814 0.6151040267554498 -0.594121833584603
C 4.973955178226587 1.050830533412261 0.11215218425141234
C 5.942062342770484 1.4678579902318467 0.8927874523334104
H -6.6078157095848455 2.4855510028365435 -1.6517930814914479
H -3.6644595386728414 0.1364156955185973 -2.1495849107014777
H -3.139589931059757 1.1865554704383605 0.25369506095708017
H -4.558799770289712 0.20224603446238706 0.7851389476973051
H -1.3300690884035329 -0.03586788934083785 -0.9241417663852061
H -0.9725015809133075 -2.9345696844398956 -0.62119053139442
H 1.5492627126443963 -1.7795397938600113 2.0765302121672837
H 3.293074112517195 -1.8331225917474987 -0.14332240162694107
H 2.1454310782607724 0.8704733543827341 0.5807184730374705
H 4.100338412449067 0.6687702882921489 -1.6372693465068833
H 5.898813046370606 2.4922221274941716 1.147773592115583
H 6.6421541507959345 0.7145830349650825 1.1652757605061441
