38

C -8.115753256020168 1.4845463020822465 -0.6971278361712661
C -6.902229216322446 1.0905199024531063 -0.3577061590888803
C -6.539014448698821 0.9273694989143155 1.0460005642337897
C -5.654730985597885 -0.229531223785583 1.2825509371128774
C -5.013978199370434 -0.6893305878763364 0.24688778421808708
C -4.3411421499022795 -1.005694955023193 -0.8423187191417155
C -3.0842803642616485 -0.2976490181403961 -1.0427279171036996
C -2.178625811184248 -0.2688837928006522 0.14845040463927667
C -0.9491354741039679 0.5004880375239527 -0.2604862262593935
C 0.21967794240114208 0.25452890041266746 0.2481939974851117
C 1.3334336705924703 0.049353906756527476 0.8619834112110165
C 2.5151496629697783 0.047501167669575226 1.3962747987050994
C 3.7751022885593932 0.15620231123134454 0.5909803425244987
C 4.562320560943494 -1.0993897174435039 0.7239715183757733
C 4.105701327433704 -2.085853020097722 1.5127503144779488
C 5.804453867172395 -1.262630558057244 0.014839761438174753
C 6.322699220295375 -0.3694926153349587 -0.7709806342470185
C 5.726397540119302 0.9051182075508712 -1.040961417909097
C 6.284185357129351 1.79182598263062 -1.848704767945524
H -8.858631036545527 1.692607810778688 0.04967287763674897
H -6.181567486126937 0.8904684961231603 -1.1337997861015279
H -5.989505154759598 1.8337346747870034 1.3771617322798415
H -5.465761070010757 -0.7393719988373094 2.1789838138711444
H -4.818023734865824 -1.7407461822786348 -1.4274241628556334
H -2.5285542037761126 -0.6766306482338201 -1.9419641148741353
H -3.3280092880610854 0.7664733371828708 -1.2935303034122603
H -2.7082538432035923 0.2781454902617361 0.9604570054669956
H -1.8999388414576879 -1.2770908509089782 0.5074582488291997
H -1.0158062127533656 1.290108580951132 -1.0016406610516562
H 2.5980032874501844 -0.03530538435968958 2.460796906088912
H 4.359052041789163 1.0330359212873546 0.9203713878240941
H 3.4535227790988894 0.25948877105841184 -0.45629875165426326
H 4.700503599771674 -2.976276050039126 1.583805646659964
H 3.1764486808637886 -1.965812813925467 2.0436007682401116
H 6.3516723281367895 -2.210622599628055 0.14898994707636945
H 7.282894611579839 -0.6092626094880388 -1.2607138356727414
H 7.221950880738788 1.5399031433254202 -2.3179394948643073
H 5.779771129976962 2.748154183277723 -2.0149251437105926
