25

C -3.3366700847211943 1.358076082989204 2.192797169403235
C -2.1605364302270114 0.8018494193284386 2.226258831986521
C -1.620012067555489 0.10023480792687937 1.0830132343976324
C -0.38877173379239155 -0.5318787078976408 0.9909500102469516
C 0.17804312530198277 -1.1755812106575871 0.03625762417149804
C -0.39724818508124704 -1.4171476328180033 -1.3084592205216334
C 1.543541482469084 -1.7636936268354901 0.2242806353058395
C 2.5380989817676927 -0.9291546758613353 0.21095234878139318
C 3.4801398565706343 -0.05185667868023635 0.05757547872710338
C 4.575445777162532 0.6422670700753446 0.15529449836540243
C 5.824572158374337 1.005678877544669 0.3448475407484983
C -2.3989312693106464 0.08482545350366967 0.04210083157545749
C -3.1721892955915596 0.19978238454341585 -1.030143111763339
C -2.913200402798322 1.353920627199459 -1.8539486190215042
H -3.93387646876253 1.3018509924724226 1.2959826656501605
H -1.5355185775778095 0.8442682863500581 3.1221664845415567
H 0.3132276351515852 -2.0226264885631 -1.935757011920544
H -1.3604891497647569 -1.9657219480554402 -1.218540502625162
H -0.5488061044580079 -0.4668875068351906 -1.8590395097328116
H 1.6850809858708113 -2.8223301545546517 0.362484155420213
H 6.146103196239739 1.4411179402205305 1.281702414161891
H 6.577679124017432 0.8852399580656989 -0.42283359650149827
H -3.858524602961826 -0.5923060535309602 -1.1002355293803647
H -3.2751452530203373 2.320656985717403 -1.468109274813544
H -1.962012697302663 1.399415798352343 -2.379427128349927
