16

C 3.3779368230823015 0.5937315444203476 0.04267304568089904
C 2.689768555918685 -0.49400555679525077 -0.21550108430522227
C 1.4785703051028414 -0.8067967890967586 0.5616246096634047
C 0.38248814933693787 0.13915981955514023 0.2149833378163667
C -0.8577173149503518 -0.24073839789261528 0.4204165626296818
C -2.043621609125195 0.6048344539167847 0.11868447260410844
C -3.142253014202773 -0.29662389811665074 -0.3678382828005425
H 3.0438291018721015 1.2531206986196755 0.8303835883529035
H 3.016344776253071 -1.176848636927178 -1.0149016704989442
H 1.7240297180113195 -0.7488034368870515 1.6325142051414436
H 1.1462261241278975 -1.8663293887699877 0.38224392731643125
H 0.6703352571231415 1.1015044147281916 -0.19294877016063824
H -2.297574175824317 1.150482129858206 1.0429377848207628
H -1.7337777716245732 1.3578409097720034 -0.6253511966179507
H -3.8240807343308756 -0.6386006464455328 0.41161843358227035
H -3.6305041907701874 0.06807278006070591 -1.2880257097880552
