27

C 5.41121597195235 0.8171137209332419 -1.036165869779048
C 4.3403220753836145 0.09425135654719002 -0.749485669747733
C 3.502304821619181 -0.8143931223847867 -0.3220472022019169
C 2.515881478457192 -0.4744902558852243 0.6316543484304501
C 1.2890108453228026 -0.7582433153871013 0.2945788299621939
C 0.04629315710865347 -0.9507265505462619 -0.08743290831298899
C -0.5642597012613384 0.16509471920017804 -0.7896180867947474
C -2.0442626502801806 -0.007864483189136795 -0.7798877142496954
C -2.840351789246917 0.9435161989836062 -0.3244227319732553
C -4.301945290518734 0.7529992614152846 -0.32330578301122365
C -4.679167367521957 -0.6080517708111762 -0.8885668762361343
C 2.665454344477108 0.13904513101719718 1.9145395499076185
C 3.8638354373344517 0.45842578302727843 2.334280932608956
H 6.146443802193557 0.9298615906279918 -0.23703130594089475
H 3.5772680163684267 -1.8183847820121057 -0.7049575353638823
H -0.3230213400475952 -1.8959831529543767 0.17685555834806005
H -0.2638041974566745 1.1182831447423358 -0.3074232088508554
H -2.445643565351728 -0.9288788407337866 -1.154061935336077
H -2.441545587423306 1.8701417900871715 0.052298445391208016
H -4.851722898959159 1.508595054298894 -0.9133881730168613
H -4.727821601152592 0.7682216990672502 0.7211397127034145
H -4.233447246838179 -1.4001834094744015 -0.23488034663760252
H -4.398195947671181 -0.7210142439590107 -1.946138573172576
H -5.7791693622828095 -0.7294550620255568 -0.8139070774032576
H 1.825481907329191 0.3629288692615039 2.580848415621175
H 4.717191132502195 0.2620877797702203 1.724230805451184
H 3.993655555963799 0.9171028903836923 3.289369877654349
