24

C -2.502587809931846 0.07835303644486336 -2.148445843362782
C -1.7023107250946328 0.014967427439102347 -1.0883238312142292
C -0.32858665583339247 0.07469239366627257 -1.218002905642632
C 0.45154464473234107 0.005248783823143875 -0.09754572738589616
C 1.9297853453730085 0.06595512546410873 -0.1960293651688571
C 2.6547240222829007 0.1862111905985671 -1.2900003255425563
C 4.072277669473878 0.2067559983701631 -0.9490521855084003
C 4.188988866768586 0.09807386559352534 0.35455108396030555
C 2.846679427797614 -0.001990857059267567 0.9632328291295447
C -0.13944588017446466 -0.12150051747867953 1.125951315926091
C -1.5120660353219961 -0.17844653334673802 1.2242949709799242
C -2.3017033656447126 -0.11226435548010438 0.13633636529399432
C -3.5719256257821375 -0.17704414034571547 0.3604064348472593
C -4.852719228755434 0.07091406827017473 0.3576917333590097
H -2.1208266894978793 0.17929038201010636 -3.1600165375053852
H 0.11374136356183363 0.1744185538263871 -2.1925604957952145
H 2.2018123870510866 0.25621254492275114 -2.2838168882593743
H 4.879849578604566 0.2967090036283137 -1.6590833482102767
H 5.126204151837521 0.08408694136009205 0.8985357672398218
H 2.7340929018250955 -0.9667962338449736 1.4937958201987662
H 0.44493578542077467 -0.18005587721708471 2.0339490162532723
H -1.9271692062129846 -0.2810531885691881 2.2417426184610054
H -5.28860261469117 1.023651542040214 0.43037611014066157
H -5.396692307788642 -0.7963891541160567 0.2721600952980601
