11

C 2.9311261391836636 0.49094687335466225 0.1531249694444902
C 1.6401800820728427 0.37485488327121613 0.3978096139531814
C 0.799297707938694 -0.2258392400274659 -0.6260257057597957
C -0.49094771126433506 -0.3434529025222403 -0.3850868549250386
C -1.822932636549718 -0.7774186402888673 -0.8406401442087122
C -1.6910744215720137 -0.17299852929899814 0.4695410776715873
H 3.3138602735393032 0.14197967340951104 -0.7833411820868738
H 1.2049481401259647 0.7146993081848451 1.3343363855598749
H -2.1914810218142278 -0.2997730276185348 -1.7439949641386883
H -1.9166884733031748 0.9181291294341446 0.6565137356360458
H -1.7762880783569805 -0.8211275278982939 1.367763068854014
