21

C 3.643986946974079 -0.9069224258056104 -0.07902497753706304
C 2.7889565624893677 0.08990783776884492 -0.19342235799709645
C 1.3729100147955307 -0.14367341696650474 0.06907538770996102
C 0.7889712578949687 -1.2824932999324814 0.4273530627705041
C -0.6126281821898982 -1.1136985869889333 0.598200155654494
C -1.6219217081717263 -1.817206482751445 -0.1208002003801107
C -2.6844796342270576 -0.9923711029619506 -0.30317845964813345
C -2.3696425401755614 0.35895866365153556 0.3329098038865494
C -0.8638328088767129 0.31603973622426046 0.18803702787399293
C 0.2911048324206729 0.8431233232259062 -0.07084408750927043
C 0.4510427796649843 2.2894886882863323 -0.461446025823726
H 3.391693212809852 -1.9123791160278745 0.19890593169524987
H 3.174718996351797 1.0519493557607584 -0.48039923529475853
H 1.4017427754843204 -2.184543075698017 0.5493168435223227
H -1.605801941252686 -2.8398128537787164 -0.4887573978734436
H -3.6167126571668486 -1.1996944935866758 -0.8027833812236734
H -2.7018208949641735 0.3324131567498395 1.3655782713500115
H -2.75989139839594 1.1368667857104453 -0.3141002142320539
H 1.521315618845288 2.5613748965473 -0.37342830755608186
H -0.1416413827701895 2.9537366955200954 0.18211731264892722
H 0.15193015045995645 2.458935715052884 -1.5115915821044863
