19

C -2.3776776617744737 2.187036119206742 -0.8607447615367777
C -1.9696452461253313 0.9812359743213647 -0.5106296748343898
C -2.775808679769121 0.11630093421771491 0.33703223246027547
C -2.3883168249871813 -1.0905285997882574 0.6987557918507096
C -1.1137641421058309 -1.6847930180188997 0.2885356584866522
C -0.3329784697598556 -0.7767104212472654 -0.5658113837135967
C 0.9873598026963853 -1.20602972153224 -1.0791847257871572
C 2.0235106425253027 -0.5221791944659713 -0.756101728033961
C 3.137738216048148 0.08934796873104642 -0.48408372637437347
C 4.268383240829901 0.6953741202669895 -0.2962374552860025
C -0.6945869951304925 0.43823467336899596 -0.9454299093337426
H -1.8309903712245812 2.857958957068551 -1.4755744897514376
H -3.737159492289277 0.524301083667641 0.665510633734622
H -3.1041201604543516 -1.6320564751845563 1.344070141149568
H -0.5112181511426486 -1.8641143969414053 1.212460892489098
H 1.02731818819151 -2.0721452447474564 -1.7014343403232546
H 5.1449418690379956 0.3378558185374376 -0.7800168174152649
H 4.319629827220555 1.5570294024792848 0.34688698055286427
H -0.07261559178641418 1.0638820200603198 -1.5796618555555457
