19

C -3.266327400040795 1.2804211155651148 0.0914334855811688
C -1.9575094180903585 1.3642846540444695 -0.02467129313457644
C -1.118817128614682 0.23191338576575993 0.11970978498500866
C -1.6818308347109108 -0.9126319831933255 0.37410876280645344
C -2.308056637163377 -2.0483700798198683 0.632405211604912
C 0.3141236005312041 0.1662651640282993 0.021656756045490548
C 1.0587041273591646 -0.614869024744169 0.9149697794657246
C 2.4243262701983137 -0.6748187969703401 0.8182854392607798
C 3.0753847962238376 0.034691230496216016 -0.16074512151363815
C 2.36125793983537 0.8239534526051981 -1.0681840034083894
C 0.9768792349843768 0.8678982297384173 -0.9489014271618441
H -3.7179115237507325 0.3208825903419747 0.30313877775931874
H -1.5806658808610703 2.378046132611877 -0.24064972886832384
H -2.581302275639702 -2.5859608317002225 -0.2322214985178036
H -2.4355067418600336 -2.2368171956470397 1.6606572688717915
H 2.989778543168533 -1.2685184190442418 1.4973287387119414
H 4.145198005789588 -0.0014368004638391793 -0.25019836592499645
H 2.858000446293052 1.3876317049668319 -1.8433990327820136
H 0.4442748763484205 1.4874354714188591 -1.664723533781051
