20

C 1.415179110665147 2.5371959421955808 0.23345912592367055
C 1.9034600712228815 1.3099238203393786 0.18610040740393735
C 1.0304568919449222 0.18380342340375214 0.5970184694584872
C 1.8763072707856931 -0.9532320638825091 1.0535626614807343
C 2.8370630342379743 -1.4128711442819926 0.2739638670346658
C 0.2392693540039621 -0.22981956029820896 -0.6321276660258152
C -0.6742507152096844 -1.3444813767969872 -0.3702697918570249
C -1.897472690391056 -1.047778385219839 0.03701323605871535
C -2.995014678435503 -0.5102930189733753 0.49352217942039067
C -3.951595645559893 0.05260436869327294 -0.45873501595485694
H 2.0533017944624965 3.3732983202531597 -0.06817928584592847
H 2.9054943651895884 1.081825674943204 -0.1361315333364514
H 0.31298732173981897 0.4699217356781022 1.3927948367348804
H 3.018800700370412 -0.9768373352826266 -0.6896324289518092
H 3.4373587839687434 -2.25188653488458 0.6480225472282642
H -0.3008576061780487 0.6756633793376117 -1.006566009627467
H 0.9635766218453273 -0.5446509740033355 -1.4261392579280603
H -3.1282710635029507 -0.5118963489176716 1.5579306734340583
H -4.657258671052963 0.7549778906630217 -0.007637555204571084
H -4.388534250106972 -0.6554678129659527 -1.1623650160487347
