18

C -1.492329667496429 2.4383541029292157 -0.968884359240541
C -1.5111695093077893 1.1388560092136135 -1.2018396149807669
C -1.3042034465614811 -0.1588350299357444 -1.0379486787251466
C -2.3814874167265216 -1.024605005494464 -0.6639052683849922
C -2.4116715774066635 -1.3938992325980202 0.587127487672148
C -2.381257022657327 -1.7431446302823477 1.8647443496330487
C 0.02601580751745541 -0.7102537765101337 -1.2346240041157779
C 1.1036003912413714 -0.13439566542563347 -0.7996913461443215
C 2.050851067397618 0.4321623183261401 -0.11565468222513112
C 3.219881335090559 0.9048465640095515 0.185564977537113
C 4.4163989782052 1.2781949725423583 0.49734453911538085
H -1.4194591286115457 2.7933749390214326 0.042307127654060875
H -3.170321937934481 -1.4148297486443595 -1.266288042324612
H -2.915037651908824 -1.0876661511156527 2.497619748321845
H -1.8305588372967354 -2.620396520270175 2.0633401208322817
H 0.11053089090217885 -1.638504507638083 -1.766215106842393
H 5.323744212276547 0.8374092775216403 0.11120141719936874
H 4.566473513276939 2.1033320843506065 1.2058013350183912
