17

C -0.968067114679612 -1.0792667744630537 -0.4390446559227589
C -2.1802157317615283 -0.13114645681617026 -0.494654002100559
C -1.919423032992985 0.6347569750308093 0.7801307226757611
C -0.46376960820788793 0.8594485012012714 0.7053235534051258
C 0.08686499976636766 -0.11722229645805227 0.010026114834663001
C 1.5185942246129271 -0.2599662571135648 -0.29108840728639523
C 2.517966390004754 -0.9188914400541893 -0.8528816156396805
C 2.909164225697387 0.2689281602734844 -0.16387883874323805
H -1.1963766062265901 -1.8396755619482912 0.32322344965572314
H -3.125394175277198 -0.7006088797237788 -0.4774964779930828
H -2.076759344461932 0.5657677010585428 -1.3297268994860607
H -2.1387551778861935 -0.05300086827633472 1.628279950431029
H -2.500714616332543 1.5740042057026469 0.8392126075090726
H 0.12034014961138736 1.68436153746734 1.1369151359093272
H 2.8099778544056284 -1.7976430167482578 -1.4484373173149174
H 3.4142877872733406 0.14089514384538554 0.8167050588657326
H 3.1922797764546726 1.1692593270220715 -0.7235772052324259
