20

C -4.1731449592227445 -0.44138059578931427 0.48932727088873756
C -2.925377757496815 -0.8699250391150659 0.6411370747339923
C -1.8504914671011328 -0.10135214773983678 0.0010980961832876763
C -1.0418284744746698 0.6940571887314004 0.9104303154412686
C 0.25730466003284364 0.6417516499702917 0.8932167369208932
C 1.0273695837805805 -0.15822054732000182 0.02854537368664615
C 0.3779337535422672 -0.9015445119888715 -0.817707033056465
C -0.22571085748100522 -1.6873259733162842 -1.6949696921265838
C 2.4658170959889634 -0.2527348180595566 -0.03123253270471042
C 3.11419322795008 0.8508771728604285 0.22681091236327888
C 3.7107781856343824 1.999775087982248 0.4983028105037388
H -4.413834964646626 0.4439574379085955 -0.08376886865442852
H -2.7563566087295857 -1.7755790808959622 1.2359572355034307
H -2.1458380461741067 0.3779533052196864 -0.931659353517575
H -1.47019168627375 1.3796606068447712 1.658784605775142
H -0.43569245060638584 -2.6495650858777617 -1.3250777392666495
H -0.3990328267211603 -1.2187131993886537 -2.6204352065365075
H 3.0707879696843556 -1.0872590237800166 -0.25395652762893056
H 3.9301402220477453 2.1450002945321853 1.5222944901377133
H 3.8831754002666834 2.6105672792219776 -0.34709796864611864
