20

C -3.4363688774258883 0.3248542846289777 0.5285774126116933
C -2.3971383737811065 -0.38163866643130545 0.16131614613894182
C -2.4709026072191866 -1.7809686348811422 -0.30714809409664107
C -1.264792650457674 -2.2280884841339947 -0.6061847282373634
C -0.2730252097861101 -1.133742718380311 -0.35326659791516823
C 0.9839289461184757 -1.3289743635341669 -0.5725307036656151
C 2.0960114292492587 -0.43633773497390305 -0.402998749774392
C 3.4577776087153693 -0.37003290780992054 -0.5458087079630728
C 2.7487281805257746 0.8272205385879424 -0.0510480871610513
C -1.018251739250614 -0.029724126481948127 0.11390063579755542
C -0.5403509711078414 1.1191233590019982 0.4475993352461239
C -0.11789419508368043 2.3066565051087817 0.7769242153297462
H -3.4016078917653823 1.338834982814505 0.870303962880265
H -3.400555220259143 -2.330790545709928 -0.3818159483605909
H -1.0562337962857473 -3.2250620628632434 -0.9716516311825631
H 4.400820654630905 -0.8042770323620165 -0.8085788224731877
H 2.686944799349908 1.7040572505938505 -0.7293163767329227
H 2.950439378925228 1.0241558048070656 1.0386428600690691
H 0.13916577193162263 2.398757274066748 1.8040402837759362
H -0.086695237024144 3.0059772779520113 -0.01095640428680381
