24

C -3.739290484507186 -0.3697513978017533 1.1994421060268516
C -3.336170461840064 0.30492667020329856 0.13581196493960304
C -3.0817786135417644 0.997594644546593 -0.9426468720963503
C -2.4500118008957235 0.2658948981263579 -2.025599925973691
C -1.3172528517767834 -0.375595746621215 -1.8133568454349296
C -0.6414007492719089 -0.3847742180635254 -0.4865359184001199
C 0.8358541541877474 -0.6389220592055791 -0.6270652126004506
C 1.4349502432232626 -0.632998566058236 0.732819354777724
C 0.7025862822982005 -0.42940334290466725 1.8089569428645904
C 2.908557896365892 -0.8661222219709422 0.8605420919217177
C 3.6505040002449416 0.18975843027131414 0.07251936990328305
H -4.66165262282519 -0.9184222943422368 1.0633149826173574
H -3.3592043834028127 2.0212727576954497 -0.9261332395120517
H -2.879161161591812 0.23078145616025303 -2.999562806183362
H -1.151854648433233 -1.1262028627965497 0.130824277196126
H -0.7588286211435731 0.6238950487120808 -0.012539614083440299
H 1.3406121788720085 0.12492598216794451 -1.2152929858488275
H 0.9422103368311279 -1.66155238308141 -1.0778134709659437
H -0.36186394367025826 -0.25479584993847304 1.7972414639735164
H 1.170749428176406 -0.43123356054416195 2.7881795700237224
H 3.2302639434314626 -0.893931945548994 1.9057281190535493
H 3.1030051159782364 1.1682821538109704 0.10159087949815855
H 3.7672636507697352 -0.13713044622291132 -0.9733395100227553
H 4.651913112521486 0.37798416003019003 0.5029152783258263
