19

C -2.605668409268781 1.9530251354379715 -0.7234377855026718
C -2.1093913694497295 0.7508267935909468 -0.37875220490103356
C -0.7741209735625197 0.6315337812461692 0.16700772149982995
C -0.21731943372348805 -0.5015236792761545 0.5274710985453306
C 1.1168287093297096 -0.6579668312912897 1.0773539355651978
C 2.119001784266306 -0.16844300510937502 0.3968189429881453
C 3.1974013052325065 0.23646096932641616 -0.19279224438644424
C 4.3810090597192985 0.5287178033197737 -0.6518175867726088
C -1.0251396504677246 -1.703728202098151 0.35353091808118975
C -2.2568211685138277 -1.6431040413930074 -0.14390924167447558
C -2.9495054909093046 -0.438262518767073 -0.5672444146702845
H -1.962618092867287 2.8036489175915142 -0.5718551568336281
H -0.15767890175175395 1.5232079002178014 0.3028152180711733
H 1.2767659547369703 -1.1733928013944943 2.038002263450064
H 4.942404127115447 1.325761179066737 -0.18450625492564543
H 4.851948329769845 0.021855156789707755 -1.4827981602598654
H -0.6588888684767009 -2.68021813616579 0.618977010466009
H -3.8928337913744717 -0.2431764827475192 0.023765489936865062
H -3.275373119804547 -0.5652219383441953 -1.6334752382353932
