10

C -2.2358958696316744 -1.1278531933466298 0.424036819953165
C -1.7229789476191206 0.0793812284053247 0.4565896838238447
C -1.1185556567614916 1.211082825193164 0.5842252884209528
C 0.1268889793907137 1.4291412503767045 -0.0804120731876567
C 0.9643253749889211 0.40978773627508314 -0.0985493165626743
C 1.7370800162475553 -0.6494798611126973 -0.061963130315539613
H -2.2286165767867785 -1.6186268725977153 -0.5369883580030043
H 0.4926901208299222 2.2877045108977505 -0.5677969738661494
H 1.6039037008604282 -1.3147477529986809 -0.886765986593599
H 2.3811588584815158 -0.7063898710923813 0.7676240463306575
