11

C -2.3348562601922755 -0.1746632701745578 0.22134359344853374
C -1.4347159006040209 -0.9851658263495365 -0.2617971878899972
C -0.02601561063498361 -0.6536032129989899 -0.3841483435229093
C 0.48988976494977216 0.49896989483461784 -0.020547124995684132
C 1.913546732461406 0.7653772112079198 -0.17139828177455227
H -2.1382727948845055 0.8216771467790096 0.5805948980966249
H -1.759607370229988 -1.961522657381403 -0.5900195829532344
H 0.6583100259659371 -1.4088013769546457 -0.8064799301515102
H -0.1705765822379222 1.2372621575633802 0.39077884072118374
H 2.211310950467808 1.810686179054801 -0.11962504313744785
H 2.5909870449387427 0.04978375441940973 0.2873439676784471
