13

C 2.6553881757018196 1.235434612571934 -0.281839791236899
C 1.9568445145490356 0.14041966829064567 -0.1430576690357058
C 1.1237209695243424 -0.8893971220059154 -0.19441918909187209
C -0.09743245233748779 -0.7782266960119913 0.6050313147587743
C -1.26127410956429 -0.31799842785154986 -0.18868149802717926
C -1.9022389239866058 0.7857519450810443 0.10687661088588238
H 2.301885266640518 1.9759313119275561 -1.005316787592422
H 1.4275913310228834 -1.692388682688223 -0.8124788023765949
H -0.34918816031997174 -1.817094219352656 0.9636609380100906
H 0.046196507387488504 -0.18446495873435964 1.5313105748034217
H -1.5650363664024727 -0.931939749500977 -1.0283769002448409
H -1.5940425627979986 1.3846503079093015 0.9381341421695001
H -2.7424141894172815 1.0893220103653745 -0.49084294302216547
