27

C -4.69010875935285 -1.3859142250669814 -0.4928570129534919
C -4.895121075713169 -0.19538223192905677 0.04643988641970036
C -3.9894948308373746 0.9658093030155039 -0.22074772817657445
C -2.8437891116903735 0.5450078115386687 -1.0359012913918437
C -1.6018634206436897 0.6283766718128806 -0.6806082196416777
C -1.1505613570419166 1.1544551679246713 0.588095658368656
C 0.14416677888323443 1.2002769927361339 0.8621965213954471
C 1.1312046353417495 0.7169853362362616 -0.12069044639388683
C 1.178991853317843 -0.7501339581025328 -0.21259981908880818
C 2.171891186198354 -1.323071437816374 -0.8391855094256877
C 3.34017171604533 -1.870980961481743 -1.142240314716485
C 4.391317379132734 -1.9165969665804488 -0.1619950029137308
C 5.242802439417354 -0.9230569604177288 -0.18250741280898403
C 6.05863141026725 0.11493220934979166 -0.2718984174779458
H -3.840120476590851 -1.5637351520547622 -1.1612610358222955
H -5.744915601200258 -0.0727163642541349 0.6965236882186001
H -4.578019042418333 1.6757232438926049 -0.8647226873658219
H -3.6675666147619435 1.484752059831589 0.6777028928170522
H -3.1001345734657435 0.12386733524007816 -2.0368191853381026
H -0.8636007478484193 0.2629895392803179 -1.4231669803249638
H -1.8343759294356068 1.5111435020534738 1.3226150391028084
H 0.515177326637785 1.5837648173017504 1.7924835633144538
H 0.9638218903840994 1.1234311948984494 -1.1376370751109424
H 0.43412549188911154 -1.3550290075176377 0.2174535229359869
H 4.580507594842785 -2.6420408763740357 0.5813786979540274
H 6.8766319059867556 -0.033409677880668516 -0.9166569369861163
H 5.770229932656804 0.9405526343640875 0.3156142799566463
