20

C -3.2801311642724333 -1.0538611942123681 -0.4653617723319169
C -2.052035136582086 -1.4527304186044308 -0.2328630898921333
C -0.8666067165617739 -2.0301767807847866 -0.3004696021147742
C 0.34082892256344816 -1.3805796467952596 -0.8109027726359483
C 0.4151212330931689 0.06724238915133018 -0.5170083123293475
C -0.5347425147729205 0.6567448831212883 0.1439610193131466
C -1.3081737347749367 1.3141435546805222 0.9627415358102045
C -2.232058148922213 1.9439687720351113 1.61791443603214
C 1.5457504273167533 0.8189196875673356 -0.9663242118709418
C 2.6158397866407115 0.7745271030508623 -0.20381525790205443
C 3.6420773607038113 0.6729522986625074 0.6193665597269125
H -3.5889702357249575 -0.958268487512305 -1.4749475294938243
H -0.8063688604688176 -3.045767970550578 0.04429252606414872
H 1.2223424553805298 -1.8711367129631953 -0.30107134323083007
H 0.5126179892500227 -1.5855929485994644 -1.89153511491282
H -2.0289799427546105 2.3013393733108294 2.613821551439164
H -3.213502021157821 2.133236485778439 1.210791006269538
H 1.6587271888709512 1.4150872387464293 -1.8300435276900358
H 4.295474733670045 -0.12789695335155374 0.4022341376274148
H 3.662788378503336 1.407849327269354 1.3792197621218818
