19

C -3.740313408348839 1.0270039192207883 0.2502244525372227
C -2.462219591981797 1.0656037319010732 -0.10858068424612727
C -1.7794111899258291 -0.1633142976923896 -0.33614982781487895
C -2.2112731897596944 -1.3620880825310446 -1.0321382475581566
C -0.5692617067989144 -0.22077897471520774 0.1586681964442312
C 0.6842866284437467 -0.23234091293390996 0.5395826328431277
C 1.6495860265412043 0.23839010062308777 -0.43760282567227493
C 2.977577620201145 0.3740003271710923 0.19564467594686702
C 4.119597421554124 0.35119961198029304 -0.4798558863368422
H -4.338423300549943 1.9003391194662744 0.44371370114317943
H -2.0280128524975374 2.059689669367825 -0.2023158723295945
H -2.368741938811682 -2.173373887675132 -0.2767291702412448
H -1.458467540816554 -1.7781389250815554 -1.74994689667833
H -3.2112514780233496 -1.223754989681566 -1.5371208603889583
H 0.8035804668623276 -0.5898769036250181 1.5196603573069893
H 1.6560295247601953 -0.45267053946080166 -1.3100544361156083
H 3.047031598387863 0.5001547321840575 1.2707338260937915
H 5.083957880229412 0.45207931775816695 0.0010324726194718156
H 4.145729030533883 0.2278769837237701 -1.570008184484747
