23

C 2.612135644867977 1.9017228488686917 0.7671168794767269
C 2.8595989541076205 0.9247427864313915 -0.09259874542751097
C 1.7581659004812906 0.4751675649868835 -0.9603127843963334
C 1.372154105708652 -0.9460282387608826 -0.7731637745393329
C 0.2980227516309763 -1.5964940654304929 -1.536727659422985
C 0.16981606780446964 -1.3469081447405287 -0.04913880619432113
C -0.9189701018775961 -0.4347697720524789 0.3524678689726717
C -1.0089529864182174 0.859865274996368 0.14021366759423673
C -2.279988449036108 1.3385586603799882 0.7271091605302845
C -2.894437671435518 0.13881138690244688 1.2983927594189086
C -2.116843903937481 -0.8876696047759731 1.087113963245315
H 3.3835591748447547 2.2683773124145397 1.4255085601230075
H 3.8602012861246093 0.512286548162943 -0.107454626036364
H 1.7952226410052485 0.8307450627950755 -1.9837282500168547
H 2.2845521371246527 -1.6081750842815368 -0.6416226536693713
H 0.40571444173903565 -2.64778297388586 -1.8903363945969358
H -0.39253350806103404 -1.0221642470870882 -2.188609803943217
H 0.25481819304146525 -2.3029941750427327 0.5565976128482468
H -0.3274407885170064 1.535811801724265 -0.36322272448715043
H -2.9347654666175105 1.834910606436134 -0.0056067457231220846
H -2.0111451924823167 2.0349479905342776 1.5572008569866724
H -3.8443250195509013 0.05894192217038895 1.8246690781612664
H -2.324558210547119 -1.9219034607457957 1.4067392230851092
