16

C 4.1410404611623886 0.30925381461920154 -0.8097565798178725
C 2.8578167088977593 0.2181005072269545 -0.8188151391034223
C 1.5583309713012417 0.2894526701725265 -0.8518543256459404
C 0.3197856218494308 0.16284418623384042 -0.3522475173084817
C -0.3490119507052833 1.3126753981501103 0.2159366258934391
C -1.5636998786204088 1.2641530731256077 0.7244550259991289
C -2.2386109839563932 -0.01996654391243423 0.6990514402429476
C -1.6859618728300056 -1.0965442973653725 0.19856679585982276
C -0.34381717417296376 -1.147919492305905 -0.38902976569393627
H 4.746643870600395 0.0009489010799868804 0.03047218805304895
H 0.23736197285197042 2.236969532602406 0.1911363791366339
H -2.0355928013119327 2.129697987525553 1.138637306337363
H -3.256260883142011 -0.15936508598981397 1.100902753351598
H -2.2502915699940544 -2.061297093073626 0.20402059405881445
H 0.3028122794669772 -1.9000226717882125 0.15191789410901346
H -0.4405447713970952 -1.5389808863007277 -1.433393675472111
