20

C 3.9874788763096936 -0.3891520548445364 -1.0406273751110668
C 3.1449204212026243 -0.1753319430625058 -0.039521666644784396
C 2.6231929013986295 1.1951075835995573 0.21830893566173903
C 1.1531913591426293 1.111438709526236 0.34400008237445323
C 0.5041407579229252 0.09251656132077768 -0.16339411543388863
C -0.9435785166534385 0.027355819899262158 -0.029731663461812975
C -1.7696534930179582 0.8703866756180961 0.5510833412551783
C -3.1377809309665374 0.40887922789775366 0.44815514816472807
C -3.1382429438445167 -0.7270340016442437 -0.20290252625376182
C -1.7590390729516645 -1.0779935016092477 -0.5669848695197715
H 4.332017524355209 -1.421411783505798 -1.1736795560531548
H 2.7962026040743533 -0.967042244240637 0.6322388403629209
H 3.098684138032109 1.6544679093915757 1.1139594079722501
H 0.6210282844503272 1.877567928273512 0.8460207249247859
H 1.066895371215527 -0.6734780622363079 -0.6689524992341093
H -1.3972747557775214 1.7874762768820716 1.0327876597554857
H -4.004888575776916 0.9299296209855346 0.8492497367953351
H -4.017037458641751 -1.3512009472158082 -0.4568756343953528
H -1.6988273821522542 -1.10892653766209 -1.6848308970085386
H -1.4614291083221684 -2.0635552373727832 -0.13149833223551194
