20

C -5.0948966624934595 -0.2599621974137834 -2.01365783989659
C -4.492892226109794 -0.07694233375844622 -0.8671801400265723
C -3.93547496909388 -0.08108974469032564 0.3342540057942917
C -2.569054600860966 -0.605944087226016 0.4249896917041673
C -1.6253140690816004 0.5362795712856687 0.4154891533450162
C -0.413231464339203 0.4557039196669161 -0.08615008011486713
C 0.8419019457473265 0.2281171909002867 -0.3380345092684173
C 2.139875096281019 0.17687289257664993 -0.51479753307689
C 2.9713898674468258 -0.565562607050434 0.438069302103246
C 4.368818809874433 -0.02249875719703889 0.5632910569481553
H -5.522002819724285 -1.251083709109677 -2.1846071587432867
H -4.542761769871916 0.300007057883439 1.1178995487792123
H -2.358971639824493 -1.319948316388098 -0.39675124964440356
H -1.9345804567535747 1.4836942474991592 0.8366180248669749
H 2.516105711960564 0.7039601301173871 -1.3802403789481044
H 2.989898438872443 -1.656217967985829 0.23924148809906318
H 2.495455223378583 -0.4371052805325405 1.4539432004928703
H 4.897251849939662 0.00598874222987226 -0.3874029856520259
H 4.925638009338706 -0.7218387014757641 1.2388203967889164
H 4.342845725313759 0.9477246626081088 1.106206006449228
