21

C -4.225981198778938 3.2400949082942563 -0.027756306454367746
C -4.080039419060081 1.9840187652240937 0.302445310562628
C -3.601566249123608 0.7848240653385431 0.4485287647647142
C -3.2622103837736542 -0.4587660739784152 0.4586129879659961
C -1.863859388445999 -0.8248039019606058 0.16278140149059594
C -0.8116031545334731 -0.13807773888001698 0.6029856755044664
C 0.37604748987267544 -0.8153480872862996 0.09933776991426226
C 1.6058538031985625 -0.42810476094581784 0.3276325602751067
C 2.8336696532146757 -0.2211777455588 0.6476159927624815
C 4.155550663119107 -0.1903048156409026 0.692334893626913
C 4.9491270958526075 0.5763480778741014 -0.29595830158595654
C -0.10845332931807782 -1.9493598273117791 -0.6667209587797798
C -1.4301523868751411 -1.9645093596878056 -0.6358843107932718
H -3.5547397975624957 3.986501379878691 0.4182767991105387
H -3.965996999817205 -1.2467327383180573 0.6764225911396052
H -0.8760150349186097 0.7562102778133379 1.221052812854207
H 5.722916194863146 1.2151281977316155 0.20224278814903215
H 4.238417297963587 1.1975945100751726 -0.8971695457327581
H 5.428623072912254 -0.1593713305077994 -0.9770553516071786
H 0.5542307338742934 -2.6457249631866455 -1.1670809102307496
H -2.0838186626638624 -2.698438838966788 -1.1210759160050483
