32

C -2.3229352225480606 4.693912098831556 -1.290163057381548
C -2.005551591083496 3.433506348087822 -1.628301444241712
C -1.1688660957594204 2.6671391591097082 -0.7239757431964022
C -0.8309169114298343 1.43075175549172 -1.0097865472072165
C 0.02665080547327462 0.6156805738214554 -0.10365973831499388
C -0.7026193777314338 -0.5288529950506038 0.4598926499203034
C -1.931205522477949 -0.7892902904981601 0.04493875239075882
C -2.654775871649624 -1.9479614011117923 0.6229664719772517
C -3.9341436078798915 -1.5159612571452785 1.3135401318582665
C 1.2796050323776196 0.1846833508336909 -0.7828529610472893
C 2.122036834884556 -0.6308367174603599 0.15549066413361565
C 3.3865122920069917 -1.0766173698479875 -0.46517309493709363
C 4.223017064488518 -1.6901053662889398 0.33096553508715626
C 5.013899637151605 -2.299481720569352 1.199399168244463
H -1.9649781996443318 5.126975825149396 -0.3687332993657542
H -2.371845776025203 3.0193362932146868 -2.550855988026446
H -0.8066129634300389 3.0892440922987903 0.19719223706523112
H -1.170304197772771 0.9672081674463954 -1.9206311925289992
H 0.3320640383853848 1.2640973961825646 0.7589458762093231
H -0.24281517390406415 -1.150719906095569 1.211306933855978
H -2.3841480050702635 -0.15570836143906738 -0.7049222065671251
H -2.02431068352643 -2.4209741920173022 1.375355650649677
H -2.932846017310406 -2.671106481825454 -0.1840108526647843
H -4.210241828658324 -2.173017064314162 2.148179079351346
H -3.8466483619060226 -0.4399259254477298 1.6410587188383419
H 1.027429865473559 -0.45435327351194765 -1.6669935581693065
H 1.8779822854225408 1.0473355352506697 -1.1416443321946546
H 2.3810232656419617 -0.07144649818818115 1.0767208717964722
H 1.5837367264082576 -1.5553940066228964 0.5023886486256659
H 3.7112393074074728 -0.9705041025097179 -1.4601598358333496
H 4.862846940627661 -3.3436423164690985 1.2588497150214513
H 5.677721312057813 -1.6539713493042283 1.7046727466508063
