14

C 2.1989577842034747 -0.8137124787722861 0.49475498473446505
C 1.188810972922898 -0.1269232995237078 0.9558911445389571
C 0.5013852520941929 0.901328362374116 0.09781656292043019
C -0.5049706184782503 0.1881708610359207 -0.7548099662620836
C -1.5521776675624426 -0.542748743062402 0.014297676476114844
H 2.549655035111763 -0.651164223411321 -0.5031455448131775
H 0.8092975212424839 -0.26844530825904556 1.963931197206542
H 0.03171817173936423 1.6937798441281113 0.713970558947851
H 1.2635325494472607 1.3388850587007683 -0.5833826544987286
H 0.0758527389896376 -0.4947248486496155 -1.434140019179018
H -0.9607842410421908 0.9547733866942576 -1.437953137993675
H -1.276227745365156 -0.8007380815823344 1.046103742030561
H -1.8307113077888904 -1.4578468548882806 -0.5806562652301896
H -2.4943384455141344 0.07936632521581989 0.00732172112196005
