23

C 1.885089889697738 0.8486335769197922 2.379844616181778
C 2.463819292122966 1.3195750834270403 1.2890979150942687
C 3.021245711962641 0.35472282584305437 0.3140754761169849
C 1.8299805496145034 -0.47592493038981853 -0.1533139159503068
C 0.6350313123232336 -0.021894768221288954 -0.11762816259938225
C -0.5906021973021887 -0.6115961922473143 -0.4946783444456271
C -0.8042184026350587 -1.9223446004816078 -1.033873997780841
C -0.043477397541030256 -2.903854519431848 -1.3280434532966612
C -1.7530986629032306 0.11077975308851463 -0.3499177240176274
C -1.848378346155812 1.4322538323686202 0.15672592086590287
C -3.030648100387415 2.0220200900558116 0.24715534757931026
H 1.8044784095460606 -0.19595831360490273 2.583938365275932
H 2.525223586594193 2.3894873356775164 1.1190272120297875
H 3.475311858909818 0.8715659003504429 -0.5503183454374172
H 2.121901488499836 -1.4291906414799838 -0.4921696639065767
H 0.5694231212978339 1.0287837330773508 0.28634041462973064
H -1.907404826840045 -2.166444811186855 -1.2608499420366055
H 0.9984855104934909 -2.9747114750014703 -1.2317902894942672
H -0.5058746113648843 -3.836089699602285 -1.748509753091739
H -2.7023563274377755 -0.37195902477278286 -0.6521508603391266
H -1.0188765701644558 2.011320242820368 0.48246786282062465
H -3.9425880790230785 1.5031212427072358 -0.06480572985673734
H -3.182467209307688 3.0177053600805173 0.6193770516584358
