18

C 3.5888141870917107 0.6885001793379892 0.6456075598634752
C 2.3872216203516774 0.4704682966086837 0.14626963604295268
C 1.557634269165434 -0.5841693073468291 0.7015672753656642
C 0.35980479042262437 -0.8498053989865193 0.2506517502691253
C -0.19729219687483432 -0.06916089116590571 -0.8605381499510483
C -1.5738344170630074 -0.5756781830183492 -1.402822192418681
C -1.4361322505544987 0.7178514391571942 -0.7370618814574589
C -2.152162122179813 0.8917188904467303 0.5734701930766382
H 4.003207384519615 0.11559692131137599 1.4629938607295576
H 2.040593378173845 1.0836380568311557 -0.6694395285992746
H 1.9477881241502921 -1.185468725958928 1.5338361049187363
H -0.2185755032278254 -1.6371178664674197 0.6902174823131758
H 0.5002803222628814 0.2502064570647987 -1.6856193036852893
H -1.9787279654894563 -1.4726897053741361 -0.8763908846278418
H -1.6803310096120143 -0.6246259937435371 -2.486188143833646
H -2.251895530701279 1.946296475284908 0.8815213071614088
H -1.6941174890947663 0.3273509632513064 1.406469877157619
H -3.2022755913405705 0.5070883927674562 0.42545503767489184
