29

C 4.089367925537559 1.937581900255853 0.8201606116620553
C 4.647650825046445 0.9123398657823215 0.2173901553589715
C 3.9641436221647686 -0.39316745502447686 0.21685456930082372
C 2.5984429298818053 -0.1627148077911369 -0.4368947475482231
C 1.8036628860109547 -1.447865435757982 -0.4911785964914519
C 0.5064118780997531 -1.1271369062002445 -1.1354851486917081
C -0.517240007794686 -0.6578404569864348 -0.46514458591122665
C -0.5013676928492787 -0.414533716737726 0.8897842960050248
C -1.5986225385801194 0.07862297098331722 1.5580195901144485
C -2.750085838936535 0.3370719714088706 0.8475105018711081
C -2.8152598849857458 0.11096894849126117 -0.5045088447980336
C -1.6965358906646333 -0.38108141432914805 -1.1271450924960842
C -4.152772325944439 0.48075117363203784 -0.9507102829592649
C -4.798440234461521 0.8933561174441326 0.10955592707415812
C -3.910035996708991 0.8066657205876893 1.271961286312831
H 3.132447654182832 1.84522158662782 1.3199000330729425
H 5.592710085355987 1.0229835098260598 -0.2704164577350687
H 4.539097221624901 -1.1117549988834803 -0.3827505724536835
H 2.8226460354977547 0.12932275225802412 -1.4852057853460416
H 2.059680894620911 0.622139604380565 0.08993066020070735
H 2.3504793262198924 -2.1610102535188527 -1.1368422812213113
H 1.6804018848962876 -1.8746202255203155 0.533270757662572
H 0.42575212007911567 -1.2936722501456 -2.199218475344362
H 0.38761154417059546 -0.6095372760470709 1.4602479754224311
H -1.5239741982576214 0.24807588558519988 2.6188202491277646
H -1.7857452431772434 -0.5496388152731265 -2.209833870436488
H -4.552029171763663 0.4280119948731713 -1.9727993516340863
H -5.8230496611292235 1.2489260685741812 0.16169067358689196
H -4.175348148134449 1.082533941505188 2.2870325801552887
