20

C 4.166206420160779 1.4249778467936387 0.06275985780979428
C 3.5786246717288237 0.3890452689421378 0.6801840055279416
C 2.1640431663851474 0.13282973978064516 0.5451218026651771
C 1.3829821759954248 0.8959167202212927 -0.1848936626555827
C -0.055563257447789276 0.5756312987587506 -0.2789682857841673
C -0.2631401791100626 -0.877609483145762 0.09120590997422512
C -1.7242474251348046 -1.2690305688480372 0.013454288797978064
C -2.5497382436318157 -0.45177127454222515 0.9372112546747198
C -3.518233758264021 0.2911344047865537 0.43846375808679033
H 5.2055193069216195 1.62547991544222 0.15310374105475205
H 4.201454010544229 -0.24540876757583951 1.2811151167827957
H 1.7607078305120252 1.7458170867224043 -0.7150828821612314
H -0.58744668671509 1.235312989016786 0.44258516253257174
H 0.32642712783202243 -1.5082785456594754 -0.6039266085688209
H 0.061366475846769554 -1.1018071918072878 1.1316015548196288
H -1.7714951114578303 -2.3234259600059803 0.41575819889418264
H -2.1219894104986077 -1.3135734386871716 -0.9973498090535056
H -2.3949470403707163 -0.43581902260673416 2.0067842423382705
H -3.6941562709942 0.29404321353522117 -0.6198139211656315
H -4.166373802301445 0.9165357688789184 1.0444882458784537
