17

C -2.687698069024403 0.5620411253753727 1.0399060197520873
C -2.4218540314131483 -0.15021684733397392 -0.030464420012654675
C -1.077727174483161 -0.23800987473740065 -0.5289244554462806
C -0.8237802960368562 -0.9577784762620862 -1.6064878881564895
C 0.016717730077223686 0.4864094465955472 0.1775180482826591
C 1.319583348339106 0.30664652163743095 -0.4445798836806814
C 2.329765130898386 0.010698525045351345 0.3368508117487062
C 3.268006151432841 -0.26668045396015955 1.204601617099653
H -3.669182439305965 0.6765229416143657 1.4743161801343736
H -3.2737914406714803 -0.6518392737436335 -0.4938652417402262
H -1.6217526560901325 -1.477848045281044 -2.110834618884575
H 0.1922044568872307 -1.0173387327189394 -1.9731352494573098
H 0.00969983665308753 0.18728277873497703 1.2450370623653446
H -0.3122222358740638 1.5675566922709765 0.17278937695269572
H 1.5786412096136253 0.38248738599064824 -1.464961722190309
H 3.402286943688741 -1.3139564349944879 1.3872197089987892
H 3.771103535308944 0.5643009828756219 1.6150146542344894
