29

C -4.289041425117171 2.142323607233965 1.3591517459538054
C -3.108464483023979 1.6141039455494883 1.0710053803103299
C -2.0323811183915383 1.214676674958699 0.4409010001853184
C -0.9442273959428595 2.028955987541543 0.27479633993638364
C 0.19308561455285295 1.6029778413284683 -0.39724501944269386
C 0.1978009390850226 0.29849477588643536 -0.908484011991156
C 1.3904903992803368 -0.09887579013128439 -1.5939591924458234
C 2.486500829902583 -0.12313893136270776 -0.8509005007873405
C 3.491622035704767 -0.12265215758959684 -0.018347948890460736
C 4.208366021670774 1.1353603641629604 0.06727928194074093
C 3.718674446911035 -1.3777464582522623 0.6805770859591563
C -0.8893114887580094 -0.5162802049539744 -0.743035418329304
C -1.9920629740073188 -0.05715849770037719 -0.0734306603987076
C -3.046168006357391 -0.8465801521999022 0.08721681621009758
C -3.00007947027265 -2.217435184674143 -0.4683290582201388
H -4.850764927763026 2.606437041910362 0.5577698253444056
H -0.978528267924114 3.0244548551574795 0.6785942621733072
H 1.0488508668398515 2.247840003437444 -0.5261278592134054
H 1.57622888568117 -0.3798600991815377 -2.5831470851840357
H 3.8956195634488084 1.6811065077169052 0.9825626155038101
H 5.3201626633305565 1.0228152093365626 0.07676104382275928
H 3.4395859554413275 -2.254428614039598 0.07220260315574505
H 3.1368796593160773 -1.3693141812445353 1.6265626952648802
H 4.815715904891327 -1.478885049731955 0.8777767211580465
H -0.872556173956724 -1.5100528860469473 -1.1383732902686359
H -3.899327264765604 -0.4688755450602888 0.6140549373198951
H -2.745231533016066 -2.2239612444460777 -1.534232149792795
H -3.9973825120079747 -2.706714449915461 -0.3725463489511762
H -2.2740567447516766 -2.867587367689799 0.07994016122864787
