29

C -0.8889684275809567 -2.7151819302344 2.6542076169012465
C -0.5660271216760543 -2.409654011393044 1.4028551998600485
C -0.4288285354991041 -1.0184082174790055 1.060688706565195
C 0.7693040832411249 -0.5392992549500599 1.2826797248636308
C 1.9996267618664891 -0.07851973769679622 1.3611063613754812
C 2.820336457859336 -0.24206266602208115 0.17736637531171287
C 2.870410715855702 0.9652434674513493 -0.647836227144564
C 4.05421999338378 1.4552531434193026 -0.8930940842515336
C 5.283331711836569 1.880674598169218 -1.0891945684850086
C -1.3835413402749361 -0.0975393193332489 0.5228480132736677
C -2.789153963525335 -0.40101036291615394 0.6958722644334217
C -3.287489222115019 -1.3449504520867541 -0.07038046362610326
C -3.7004977541568707 -2.303009770373767 -0.8804604630406381
C -1.013108932773269 0.6751936561524613 -0.6357834898204141
C -1.6386348397396737 1.8163421235456447 -0.8244011243597082
C -2.3248697360131496 2.942413477283497 -0.9214411970894983
H -1.052038925996537 -1.9799384522724655 3.419682416032139
H -0.4248142108152616 -3.2093397949957 0.7154807026307896
H 2.199403765415369 0.34830921695510647 2.2976391501566824
H 2.5970972222137263 -1.1721199553687522 -0.3839540544647181
H 2.0718930167022367 1.5059111199028836 -1.0806493902919323
H 5.63329542534391 2.564535439551359 -0.3649290693652077
H 5.755287820816338 1.4791911837836051 -1.9459194859597482
H -3.5007231840793263 0.02725056361676186 1.359261464547329
H -3.611160919274222 -3.2769966979346106 -0.4797507279562646
H -4.059716377649735 -1.9584691084163304 -1.8119300005951382
H -0.2878625133630318 0.46716234694838177 -1.3949721778216644
H -3.221738479384917 2.8547261292458814 -1.47114224116267
H -1.875032490614768 3.764293265448275 -0.4338891993980132
