8

C 1.2873330658558342 -0.39444707686283775 -0.5582553955185482
C 0.25099441577550746 0.5887369966939958 -0.021675307071833926
C -1.115448823183899 -0.0139933834426096 -0.21114843786678833
H 1.35919343358499 -1.2172405101525152 0.195247773204031
H 0.4740120976924336 0.6810053823357496 1.07342738457778
H 0.3599741593399037 1.591057673910007 -0.44286896585970714
H -1.5628342373864614 -0.2800732912084344 0.78130986219006
H -1.0532241116783063 -0.9550457912733559 -0.816036913654995
