10

C -1.7098694215847146 0.34229533127554096 -0.7714270985875588
C -0.7563905753476046 -0.31350367003743784 0.2107237050228279
C 0.5976627722736856 -0.23354919702926485 -0.39212841699815476
C 1.595677795769154 0.400170616575801 0.2048685231554174
H -2.755334002157324 0.2822342100957759 -0.46940598115584353
H -0.7114373622850101 0.23444722258253695 1.171606575571255
H -1.0501390128190013 -1.3496026675711554 0.4527847560472442
H 0.7445444221694694 -0.7167615464276508 -1.34871666629787
H 1.4575670625452164 0.8871696578698685 1.1633987848501377
H 2.5877183214361197 0.46710004266597155 -0.22170418160745486
