24

C 3.086492792550538 -0.27187863434450577 -1.05465777422473
C 2.9643946193769715 0.1912498075339365 0.17308587757032742
C 4.179942784919706 0.2789327550881233 1.0155550734808418
C 1.6997071557817167 0.6126491652046043 0.7220110593111599
C 0.788066575901826 -0.2811907167425735 0.9833863124849551
C -0.21449546946871925 -1.1386038860000756 0.8901287789923891
C -0.8971797853443826 -1.3206681388522248 -0.43069162693011137
C -0.8931655809613803 -0.04931955177102618 -1.2389743567912497
C -2.3359978345682624 -1.607407199884463 -0.09878328118595035
C -3.198389647221196 -0.6090358255013859 -0.024503480981213355
C -3.859371055089989 0.4783541083676449 0.20417502093601028
C -4.586104081952986 1.5612335381983833 0.2749293586541539
H 4.032885769884207 -0.5853048986459936 -1.4601587956502398
H 4.14577242730925 -0.4038722496471057 1.8862446134355766
H 5.114471094192954 0.10053273036763828 0.42145039043439264
H 4.255735030243936 1.3404680217352711 1.3701497662170916
H 1.4748159959319507 1.6398277706788418 0.9224313262097078
H -0.47803560006941087 -2.1829438386610294 -0.9700227461367587
H -1.8578017486283958 0.05018130125807452 -1.80262408410177
H -0.8480366338509112 0.8041996822262125 -0.5369945464291166
H -0.09017085529250782 -0.02260288068538636 -2.006336779082338
H -2.676285887180626 -2.6116535086897006 0.07946596160828372
H -5.238397803441346 1.6855703521017353 1.1258009023390236
H -4.568852263022519 2.3412820966656906 -0.47523002640523243
