21

C -4.86017000156612 1.5654766424289577 -0.9477441994175142
C -4.215084821313317 0.8039565485971927 -0.08054215988170253
C -3.5577421751174008 -0.21504213073335257 0.4178610045732491
C -2.1103257281258196 -0.27802860311192207 0.4565345029024933
C -1.4809859783913442 -1.0575300592403198 -0.3983512220918863
C -0.01992870141401538 -1.1621734559113648 -0.40690058474232593
C 0.6652193718762172 -0.44922246254290754 0.47225766406387104
C 2.1278608040841163 -0.4592235366534328 0.5735144299233412
C 2.6223057943451265 0.9645160352489818 0.37085860225724676
C 4.130377979501904 0.9282827197300475 0.47954377401279114
H -4.738733035277908 1.4057973345104284 -2.0289527932953484
H -4.125039412521308 -1.0339697955573939 0.8099079902294247
H -1.5349817896917413 0.2968250470025601 1.1671863139064007
H -2.044769498957765 -1.6521507361514958 -1.1309911133279151
H 0.47033273093098155 -1.8071480582764035 -1.1165789832535553
H 2.463454670908793 -0.7706819629158417 1.5951438588380549
H 2.5676931772079756 -1.13202737291051 -0.20610252946019594
H 2.157018800017741 1.6080551451208196 1.1279835439111454
H 2.3652291105916587 1.2955113551705222 -0.6466175281705815
H 4.622823382896496 1.1780753970271076 -0.4837375560567266
H 4.495445320015823 -0.029298050831631308 0.8988673161795838
