18

C -1.5382200048333174 2.255369349355218 -0.7003618407073794
C -0.3637730361804878 1.640639203967326 -0.6858182913520812
C 0.13691887425024063 1.129641706207029 0.6288082403231304
C 1.533093912882943 0.7269638873926904 0.5305020184892243
C 1.7576972532182105 -0.4986260135242874 0.09797283517083288
C 1.8866029904769492 -1.7235200228419782 -0.3380937098078253
C -0.7008271619476494 0.08228410461193772 1.199725161484528
C -1.1561939322059884 -0.823203493192245 0.3692321902947789
C -1.5586400503520215 -1.683833342821966 -0.5278710317762654
H -2.133101468642462 2.3954346568444134 0.19272404752385297
H 0.19535327983513479 1.5238672296242146 -1.603283645978686
H 0.09244481689069932 2.0121296934003974 1.3322354618818242
H 2.413339985970349 1.2645679581456355 0.752652641776369
H 1.9600024038400792 -1.8236692998895199 -1.3882598005670466
H 1.9010286141002393 -2.469964064183741 0.4134873758066269
H -1.0050701148446135 -0.06391472876814758 2.2017210910515104
H -0.9280428212040289 -2.5136319541044205 -0.6826611259555567
H -2.492613541254229 -1.4305348702225458 -0.9992181029696914
