32

C -4.8866320407778305 2.7289022397880043 -0.8150659085757975
C -4.608959101183709 1.446205709996451 -0.7366784479928448
C -4.08157441653891 0.8921982975263667 0.5367260728207872
C -3.3750716355168917 -0.3956256610572163 0.30495569289907615
C -3.839602644115331 -1.4637051265762198 0.9245610379032851
C -2.2068951644762693 -0.505493480145597 -0.5710604129662017
C -1.0461557693291736 0.3807578994150876 -0.1000211363873763
C 0.049637486294284654 0.19474046223135894 -1.0334598277473415
C 0.7500761615152154 -0.9147904285742792 -0.8914265067449642
C 1.4471287778413073 -1.9890912894809476 -0.5929478638256724
C 2.5191353318770107 -1.8099911918896872 0.375746951060322
C 3.2513122213218044 -0.5616237027008563 0.043631518691262354
C 4.5552239243005115 -0.4250569979716726 0.16771416306191306
C 5.1796580469442794 0.8335134081432648 -0.18202396853396471
C 6.483039449506501 0.9876305207720498 -0.06402673376637184
H -4.72543929036873 3.3551234729293173 0.04943382878018179
H -4.779435997989236 0.8375258017028221 -1.618938000139221
H -3.4286839209458897 1.6297639106345931 1.0478600464255228
H -4.954136158612041 0.7532960451429535 1.207017930186209
H -4.712415206728116 -1.4258801287624365 1.589854394685485
H -3.3343616554719713 -2.419114934816834 0.7672185597725235
H -1.8118221932245187 -1.5345768488383622 -0.5513171051900552
H -2.4264120088837604 -0.15345862952630862 -1.6069290986283833
H -1.3719818127254861 1.436847461627567 -0.1066116965799989
H 0.3976377550184832 0.7976481517943638 -1.8215564731612506
H 1.120720076312365 -2.8481736030024707 -1.1099843170188477
H 3.2516636427620096 -2.6471459457040853 0.3877603742964259
H 2.678974821970308 0.2734769315906566 -0.31776093885917117
H 5.1863729463536545 -1.2286596888573358 0.5260161547092079
H 4.601202247794683 1.6683382214023526 -0.5441250231180389
H 6.98033928578083 1.9128582400785399 -0.3161197347085774
H 7.1374568412949175 0.19356088312858555 0.29405023616898385
