8

C 2.9634770712515888 -0.15557002423567967 0.08322166789506125
C 1.6611219085683204 -0.26827823781728344 0.2326439236809676
C 0.38515725698415787 -0.3802116614443333 0.08845628971515203
C -0.8958378711977592 -0.33894055460622513 0.21227095956720524
C -2.1471773469059237 0.012713364741754368 0.451960256083571
H 3.359261420831964 0.8623397563168302 0.035625142987363724
H -2.6077180240978026 0.8751027693597059 0.013239687967301593
H -2.718284415434457 -0.607155412314767 1.122368762427723
