20

C 4.007017320458653 -0.0483184803389201 1.0171337473914692
C 2.7468164181949177 0.10712836103825114 0.7079744632604253
C 2.244203906186637 -0.31646094299189487 -0.6165291543344763
C 0.822983135315665 -0.6728588225190345 -0.4743209446495398
C -0.06471152340553106 0.34606728489090066 -0.41582093777327084
C -1.435427261649296 -0.0007505173296719715 -0.27857536078819767
C -1.833157598342101 -1.2318806998914782 -0.20950262324106145
C -2.0943761541592765 -2.4781093925436695 0.007219503224637422
C -2.4410879307025675 0.9983180576927116 -0.2088858792158088
C -2.1508933388984195 2.2655863641661664 -0.2691790553388497
H 4.684360518244029 -0.48932466234914795 0.2990876729133504
H 2.0658473957309846 0.5552307063850787 1.4416103039881472
H 2.84602151179317 -1.199733663715266 -0.9334734460983373
H 2.3591688639685184 0.4734091155311928 -1.3919114908478405
H 0.27461318632716164 1.3613947822478374 -0.4727261486180051
H -2.1075210459283342 -2.9006830001058037 0.9584356765481862
H -2.292704070870422 -3.0466927946099998 -0.8429923475686867
H -3.500039711465704 0.6782332086526112 -0.1002148243673189
H -1.1618110594509994 2.6246852835120364 -0.3723865347106607
H -2.9693025613469084 2.9747598122781405 -0.2097679871100094
