14

C 3.398593999350603 -0.7807827549120865 -0.4582247564240864
C 2.3660043493541196 0.035685578257738056 -0.6744084340281993
C 1.0843327223383905 -0.17590701513725712 -0.019761764133693106
C 0.08457349033834433 0.6201222027862227 -0.23321883090312193
C -1.2521564562606982 0.5309309581386926 0.35047986279668786
C -2.2309373495667613 0.1353302139108475 -0.7229052727016668
H 3.2542577088636837 -1.6087872417168068 0.22139338652085236
H 2.5417429808624323 0.8551461235695464 -1.3597213306180969
H 0.9609251741757805 -1.0075225558325773 0.6544886658894271
H -1.3135641342540396 -0.1854071844793357 1.2013379446144696
H -1.5205280600793027 1.5347742759617546 0.7915248103411188
H -2.482741237502306 -0.9421292669810623 -0.5719369168285553
H -3.130682078650032 0.7860856406610921 -0.6672727738176892
H -1.7598211089703912 0.2024610257732962 -1.723681081752303
