20

C 0.20325936123998223 -1.9579242580075338 -3.0400451058296274
C 0.5772976923683885 -0.7737218180729332 -2.6248622801125845
C 0.5058673527390695 -0.2827697526010763 -1.2940085935060712
C 0.8966643990666268 0.9989454629853619 -0.7733713137809077
C 0.7834030270438305 1.3490715566453635 0.49378163861554325
C 1.1841020909501752 2.63959201312604 0.9818713541858675
C 1.0607580572816404 2.964226777082932 2.248491745966877
C 0.012914720063634862 -1.113197928995765 -0.4258363082482782
C -0.6085274679934689 -1.8901052789859552 0.4488884674204317
C -2.0411138971451606 -1.7236661155198543 0.5450757251132877
H -0.20736347042240114 -2.658610984507466 -2.3177495996953903
H 0.9857514280960165 -0.1043192657983486 -3.398690062010776
H 0.36268240027637827 0.609789296845841 1.194316873099868
H 1.5968081033953452 3.3546786891288485 0.28002939628034607
H 1.3627825159267692 3.930254736874254 2.603317152776977
H 0.6518149934050349 2.266262594001365 2.965084733934963
H 0.05844213536369357 -2.5233432726023346 0.9495886343006992
H -2.4260801513242267 -0.7862606981077906 0.1121465680286745
H -2.5904304474215665 -2.605839667610116 0.1282855523530664
H -2.369032842749508 -1.6930620862104062 1.6269214566883348
