11

C -0.07746756925958176 1.1558983279946693 1.1667100892842104
C -0.0858051407480783 0.20866743698577925 0.23125900445242023
C 1.195374743905703 -0.09850356794058902 -0.4629466266636216
C -1.3637378729323135 -0.47324035753810595 -0.05492716289289345
H 0.7814016515390361 1.7131499087097712 1.4570675598725427
H 1.0161974497140212 -0.550710923035888 -1.4766566660007794
H 1.8594222152230089 0.7849769630205663 -0.5481856066428124
H 1.781656345258307 -0.8739454393580601 0.09068111717414531
H -1.743404579014878 -1.0743604761439682 0.797258053629058
H -1.2101844268805682 -1.097391922852598 -0.9628917466747532
H -2.1534528168046476 0.3054600501584313 -0.23736801553751583
