14

C -2.072118720832173 0.8460633021817892 1.0410319992522665
C -1.5929807138925287 0.5397857017962366 -0.14221160778378092
C -0.2297096759558569 0.049864708800961055 -0.23798961527941628
C 0.2895580681194943 -0.27138221417492464 -1.428177801002558
C 0.5611053086803949 -0.08269499217647168 1.0054744156647344
C 1.9114510351617229 -0.5971165687107249 0.6632035267053669
H -3.0638121558277733 1.2084770128736793 1.16237619480448
H -2.2257005021322085 0.6569206736546483 -1.0432971722977495
H 1.297489689713416 -0.6284282977715641 -1.454585688888274
H -0.3196624320329821 -0.1605769788615262 -2.3117812994134708
H 0.035112519358719126 -0.8431041447477298 1.6334966747294042
H 0.5824548797270341 0.8703344733409928 1.5838061552388454
H 2.080522949517856 -1.655790539634715 0.8253196766258816
H 2.7462897504215866 0.06764786348138391 0.8605791216681647
