14

C 1.8183275953150888 -1.1710918427648767 0.2541348478029096
C 1.5508283426736238 0.10826665612794704 0.2959283613514337
C 0.2682299411851384 0.5858053856677711 -0.16868583970461817
C -0.009647484054471637 1.8687005188868488 -0.130689855083736
C -0.7274108906295159 -0.3937154831817591 -0.6880823156832302
C -2.0404448096917362 -0.5230900351866985 -0.07386414120231402
C -1.1264092200398728 -1.421048455775963 0.3142379265950941
H 2.75825362899633 -1.536820657504113 0.5927683174511476
H 2.2731172760616896 0.8018979547982207 0.6707357102304681
H -0.9458909410653629 2.2328023161430743 -0.46801796826324843
H 0.7214942843632424 2.561211104047675 0.2475810281690984
H -0.641337221212842 -0.7211562424265483 -1.7389440351982792
H -3.064143253793069 -0.1295488877868315 -0.003152330620067506
H -0.8349672481082296 -2.2622123310447635 0.8960502941553486
