15

C 3.6376350500226864 0.904296712584851 0.07285026646417343
C 2.818334502095934 -0.1263133140741016 -0.09031175706310188
C 1.388662368923842 0.06312227795633141 0.0018514141959086053
C 0.5453828287540652 -0.9342194027722477 -0.15408723639665753
C -0.9001133946439099 -0.7600567796981414 -0.06420660686967691
C -1.4423338643601797 0.40998117411816554 0.1789629880612882
C -2.915578626332531 0.528256226337764 0.2593300821472366
H 3.2380811347275302 1.889169535382798 0.27529698655793616
H 3.1992727688873357 -1.1061645931302013 -0.2910488696404678
H 0.9755733772075127 1.0319340450682188 0.20179867306232774
H 0.9603918515718451 -1.9061702754619496 -0.3546931270970697
H -1.5482815241603072 -1.6181679772002486 -0.2014033692508081
H -3.376039986498476 0.8204908483347749 -0.7132894337121666
H -3.176254382058392 1.2403584284196383 1.070591174643004
H -3.4047321041369694 -0.4365169058656441 0.5366559960725619
