13

C -2.3737596731407327 1.3942273185850098 0.33804105171438764
C -2.0666779488200215 0.14190461012178415 0.05368484370004902
C -1.5430372238856693 -1.0696661372958245 0.1709349423287302
C -0.2141032845964263 -1.3077079527271842 -0.4466062715000459
C 0.4291320922549747 -0.07355909483640764 -0.8683709823502411
C 1.4948382396151036 0.29850207693732544 -0.20819663324184953
C 2.558220189432596 0.5865805467378078 0.5155589369129595
H -1.905522790792255 1.9512533513074908 1.1302912800284841
H -2.110414267803281 -1.8005407116681231 0.7045431739639296
H -0.24324251807775787 -2.074921029786283 -1.2464031023624595
H 0.15609997223204308 0.5902924388231984 -1.6542678297070659
H 2.3580638073921993 1.1778171046725248 1.3665137580931488
H 3.4604034061892315 0.18581747912870072 0.14427683241997144
