43

C 5.869345159840786 -0.1755065184593978 0.40892096367561
C 5.598918653135032 1.1328653441889294 0.5098629371089743
C 4.658894672208692 1.8178776732662183 -0.41872381551038146
C 3.410484070210434 2.265237545225983 0.3344421966519288
C 2.789850350396082 1.0544739677575967 0.8920321085087458
C 1.935991801486525 0.46515222187887656 0.10438215141444562
C 1.1054735422756212 -0.08364020311843214 -0.7697864067201279
C 1.7159236091352479 -1.0423519217681485 -1.6665839579208215
C -0.22459594323397375 0.40039470270960015 -0.6708780172629111
C -1.2195033812964817 -0.29027000163833755 -0.1768193896283084
C -2.5185361365509213 0.4297169112875633 -0.17928586410214392
C -3.292733402886963 0.04010395950051574 -1.1371403168168932
C -4.148896586267318 -0.3230077564576168 -2.0782667861553588
C -2.965949804391897 1.446183499276254 0.7176435315005734
C -3.0534900153833533 2.8137656335290138 0.144011308213982
C -3.221425712718728 3.829762927194283 0.9659788099507111
C -1.2287321732248195 -1.627847257357002 0.36252315645833544
C -0.048302406081609156 -2.514288211268036 0.46775495270696993
C -2.3984612578275124 -2.119405879405198 0.8116558140849517
C -2.4468519345901356 -3.471929451519017 1.3649195936676828
H 5.43920713137663 -0.8119502896288039 -0.3305989394705744
H 6.080528418557197 1.6817970480535758 1.2836653684811465
H 4.418342100031655 1.093069036189013 -1.2239173226042037
H 5.145674176801993 2.6909827525747136 -0.9188856644229465
H 2.757597585904896 2.7922821919833405 -0.35405797880489165
H 2.915942043310231 0.5840668907893926 1.8131520380282138
H 0.9001962611043519 -1.6009752137888504 -2.1954904381200233
H 2.293296395582896 -1.785350929601464 -1.0798418916343573
H 2.354146621969497 -0.5589371890773587 -2.4446225548110934
H -0.4137763132085561 1.4478879246971823 -1.0473094166723576
H -4.050894612388146 0.2359686614979874 -2.963788308383346
H -4.7902886325046685 -1.1080257778361142 -1.7984384161911393
H -3.8244659739415567 1.2267890368765024 1.3592956753831789
H -2.9842574646931257 2.990324207667195 -0.9067867695957121
H -3.2979894773952063 3.6982109293850853 2.051980619734425
H -3.291791634621117 4.858638900570286 0.5890145032799775
H 0.1447683525909311 -3.0912134704800343 -0.4726501840457429
H 0.8215143150084798 -2.004777090466976 0.878777305146357
H -0.26223782061722845 -3.337547643752123 1.213815752589834
H -3.277844382616803 -1.5345261465328859 0.7662449563493243
H -3.491266984960972 -3.7970492793743778 1.6000823666719566
H -1.9817501734303706 -4.242781074248671 0.6948344212542494
H -1.9220530360958243 -3.474170660320335 2.3463541695074754
