15

C -2.4641966362611596 1.2777180771176029 1.0941187047387964
C -2.2685796079183436 0.19106023402956002 0.3889792965191486
C -2.1181728412657392 -0.9664972554905997 -0.20926732586051594
C -0.7196730550877348 -1.4351638261515245 -0.338385756436066
C -0.005390664221554285 -0.5044678663872976 -1.1977589484383457
C 0.8159380237325736 0.31034178119220635 -0.5806889286891145
C 1.695598200605332 1.0172694781436902 0.08276969526573003
C 3.016705672722463 0.42360996166071296 0.2434203631736492
H -2.4789093486760208 1.117045247994572 2.182422246460102
H -2.9952359837171394 -1.4550348268764675 -0.5404181437161837
H -0.6338011251562801 -2.496852767201711 -0.6129756885814538
H -0.03666125032583753 -0.37535484654731943 -2.240363049030204
H 1.3211120939877365 1.9425962269050556 0.4211434374390501
H 3.7972906301522507 1.2033765649117516 0.20758770795223583
H 3.0739758914294377 -0.24964618330025123 1.099416389203087
