23

C -0.3365960134319497 1.270900440628057 3.1921513291446986
C -0.8832512674689285 0.13856223672070672 3.4222733829877425
C -1.1747655530838206 -1.0296756150493163 2.672347627327419
C -1.047867111283155 -1.4901598065326764 1.4976256208166747
C -0.5111708545849954 -1.0576400079718267 0.2150467461179951
C -0.620506579650115 -1.9448171344799892 -0.7562327427010004
C 0.073537820820107 0.2388839575925897 0.10189051471900654
C 0.6655959530787033 0.8217927078219136 -1.0756114109417854
C 0.8887936059079365 0.5195553773282957 -2.2981321772037924
C 1.5849433676130156 1.5313987994102534 -3.1947352442925667
H 0.10087989182890252 1.827431840373619 2.4677604824829613
H -1.2155682580506917 0.07146419424790428 4.5242847131679635
H -1.7020208679869535 -1.826712201938266 3.3537000744501637
H -1.4747278738758347 -2.560242081503896 1.3967617992283614
H -1.1004953207471275 -2.9324378967858964 -0.5349998726264158
H -0.31709086741522374 -1.874352973875368 -1.7571344092427716
H 0.9029340339582653 0.2727708218017218 0.9087290827226944
H -0.7155891090846389 1.0315048748012705 0.4370127036328886
H 1.070008489421539 1.8968922759848206 -0.8490624549566295
H 0.6467090162851864 -0.3742081599733482 -2.794656777422942
H 2.652153255606476 1.3385635512579155 -3.271361945255638
H 1.0388533602440635 1.572040367733309 -4.151034542672978
H 1.475240881683526 2.5584844323922957 -2.7437747707363673
