20

C 2.6050591662298697 -1.2288552423499655 -3.1321927251844803
C 1.7289913138795439 -0.6389965221725855 -2.315102543555471
C 1.8121309059458193 -0.9247171609168948 -0.9121581685674657
C 1.0495826369626404 -0.4463233793448435 0.029867622169457344
C 1.2940169791850653 -0.8588101627039716 1.3962887631052565
C 0.5589935172817763 -0.4012964829131865 2.379822007898002
C -0.061129907854025264 0.48551501847704487 -0.2432951281209035
C -1.3242963687297855 -0.18701316375478416 0.13722365977462883
C -2.3624926307795455 0.5923185383311537 0.2505862837731925
C -3.3747708658205244 1.438203391413052 0.3477251519216075
H 3.3622694513442473 -1.905302498194988 -2.764723042651328
H 0.9852845208401424 0.02839208496907932 -2.701271071964603
H 2.091910513558188 -1.5520759459985791 1.6071790501724623
H -0.24600857957787237 0.28654915190987246 2.246451205390727
H 0.761726666879222 -0.7274061645372225 3.404278030047502
H -0.10025325799657955 0.8566600525237018 -1.2657282850963762
H 0.12112197396633238 1.3699766907240523 0.44671097630353546
H -1.4935001283993503 -1.2085494915445074 0.3276150753506383
H -3.9107964837384923 1.5750202034748642 -0.550903161870416
H -3.49783942317685 1.8537406102271883 1.3116263011039966
