21

C -2.6463242255116635 1.414877676613597 -0.44760806255777214
C -1.2176870549332364 0.9828629311442094 -0.348676744052344
C -0.27477503809685766 1.9360312907476007 -0.7093538022303996
C 1.0439211991850246 1.5911372038422529 -0.6365652456746982
C 1.4540306245195547 0.33418476424999066 -0.2184349739957017
C 2.8559349111051957 0.013614181484691804 -0.15691031592934918
C 3.3334117887275814 -1.1388176914691686 0.22291954583376786
C 0.4855191725700854 -0.5559259867134162 0.121441614038238
C -0.8981910929538304 -0.2807010166137064 0.0748789751288862
C -1.8378270442308824 -1.3059619540766243 0.46023868754584596
C -3.133017702125729 -1.255836720251994 0.4880026833400487
H -2.945995539035476 1.8991835819315253 0.5075552579935175
H -0.6028614202294611 2.912237796650663 -1.0337677295680132
H 1.7771469326039637 2.3226417410960085 -0.9136966737523163
H 3.56936427133294 0.7886807194383587 -0.4483461480647095
H 4.3942466750275155 -1.3327149243499918 0.2527299975605871
H 2.695364329648463 -1.9458848010161072 0.5227398903019187
H 0.7551383642447322 -1.5580904210726634 0.456809138099804
H -1.3708717520791338 -2.2738593160422846 0.7769809466849074
H -3.700454493512643 -0.41174280781410844 0.21733783041708718
H -3.736072906256116 -2.1359162477788476 0.811725128880695
