13

C 0.5863115365929441 -0.642877547466301 -2.0530201794837746
C 0.6262436976909245 -0.9790028960343236 -0.8361757231995529
C 0.17164856418290947 -0.4000508907281704 0.3821886992772836
C 0.429220661329208 -1.1188693538516168 1.505687236774536
C -0.506710092558629 0.8190271232207565 0.5518305862697107
C -0.8585107383861342 1.666247107720362 -0.3584105538361253
H 0.23190645939545668 0.13146872756220918 -2.60205886547247
H 1.1621039618543905 -1.9969292449725051 -0.715641244436337
H 0.11985238719835455 -0.7532944535556699 2.466700806012529
H 0.9431628555118411 -2.064104735235805 1.4775653908321926
H -0.7747238506293879 1.086045906650481 1.6151465457444394
H -0.7302955226951063 1.6551797625672828 -1.4089163126040294
H -1.400209919486794 2.5971604941231976 -0.024896385878338066
