31

C -2.8911976114447566 5.529237320386144 -0.447215871792056
C -2.2263768978006557 4.380356885808543 -0.5560671864256937
C -2.926684373739445 3.123500392594733 -0.4164718436436688
C -2.420304351777108 1.9248826245026536 -0.4958839814910831
C -1.0041628987548787 1.7432398023567193 -0.7504144764613357
C -0.46315924677474196 0.5321848169590205 -0.8360026086725036
C 0.9340334653195622 0.3511701726744924 -1.0871156159238813
C 2.134776065910654 0.20605016310709426 -1.2968632909513518
C 3.5150184267005784 0.035567260165525034 -1.519406563022546
C 3.9879373267050524 -1.1722285298528055 -1.3803621694839987
C 4.407638107114665 -2.4004041538563157 -1.1238922727909395
C 4.78586808757771 -2.6587027523778137 0.25578797892119487
C -1.3290810458159539 -0.6444255653046317 -0.6673650262258447
C -1.6275298780363783 -0.9496068031603411 0.7534504892698599
C -2.728033739442645 -1.612626471627715 1.0338815871274156
C -3.0378429753531493 -1.9206509264873508 2.4155123213813168
C -2.2452931133866953 -1.5524783056910383 3.3800797847342188
H -3.950482890992294 5.527759025888278 -0.25520819466536493
H -1.1608238135377575 4.4374138322980325 -0.749660205786045
H -3.0377083893518253 1.055755931497155 -0.37515416100315424
H -0.35375700328120924 2.5955255889428153 -0.8769478899140976
H 4.233446184271758 0.7577946932594594 -1.7857189404447265
H 4.4035079707800175 -3.020402351680241 -1.9744376612593477
H 5.676759931506313 -2.0173225055627277 0.5088132383940666
H 3.9609983319503517 -2.269576059325908 0.9121757019302918
H 5.037080011884737 -3.7016267764166333 0.49671951339814124
H -0.99179762181495 -1.5240178995033624 -1.2351521626883257
H -0.9514687946520316 -0.6298230865014435 1.5215438494655746
H -3.403233094328625 -1.931285614429717 0.2585780655828575
H -3.9394941798124 -2.4625987775446063 2.6404462084380795
H -2.3886319896165276 -1.7326619311864226 4.420800678174178
