15

C 3.666462809566219 0.5497339508907224 -0.09683782128773401
C 2.427323386445574 0.17218704982836208 -0.40391493599195055
C 1.3424576731268856 0.5866598368908815 0.44954016238754513
C 0.4296323085432533 -0.26251788704550444 0.8160245476843521
C -0.6024982975803174 -1.0820214784887974 0.9610335953508138
C -1.570157871695075 -1.0885111228521687 -0.19324153415719822
C -2.3256159936638627 0.22969732112720867 -0.11838404818122254
H 3.9026379210408564 1.157269895029539 0.7685091015347054
H 2.3209400098456623 -0.43405633872629706 -1.2946517675626898
H 1.2795480086301967 1.595439488374641 0.782960433545759
H -2.2524763303842597 -1.9494899712311986 -0.14833174637542598
H -1.010693467097791 -1.1181262484617258 -1.149309983200806
H -3.316847857717323 0.005357539121312097 0.33723127360579724
H -1.8288279223234143 0.9524235201988721 0.5717715276623372
H -2.4618843767366663 0.685954445344115 -1.1071820685791773
