22

C 4.192069137910155 -0.4298453063671951 0.5797240462328502
C 2.9960261034029685 -0.6129350478413106 0.04061597384796688
C 1.8828798638918376 -0.8233815872085104 0.9033582422648128
C 0.9192709213684529 0.07933832217615591 0.8206095608526085
C -0.019896504425427886 0.9727143564007049 0.6186324647463414
C -0.9669858454284118 0.649143376218264 -0.39849979846083244
C -0.9861267594834906 1.3574475338731327 -1.666051237917098
C -0.09088853009407782 2.337308155253366 -1.8804339430416124
C -1.8527737177899266 -0.30702187443105033 -0.20973064255862567
C -1.8615259970302187 -1.0361794800805812 1.0476400295374402
C -2.7313534336079006 -1.9869157834211963 1.2535790580735995
H 5.031705868751254 -0.27078410901894645 -0.08193079020541759
H 2.8468253099586813 -0.6063498614497728 -1.0290710164452028
H 1.6800556379781 -1.578116027029439 1.6068071781591566
H 0.057956847685678894 1.819900881278928 1.245500780015307
H -1.700570990746195 1.1178418130375924 -2.441060885798528
H 0.6222765122338404 2.590671085886785 -1.1315099147041028
H -0.08799440781144671 2.8756348789514776 -2.81466571837741
H -2.57666372356671 -0.5686248114887725 -0.9621852351748862
H -1.140416586493013 -0.8040075605844227 1.8468641904493865
H -2.75076790657741 -2.5366368114550313 2.1801202451040815
H -3.4631018001268803 -2.2392021427002464 0.4716874134002124
