30

C 7.298331509067513 -0.6209706258963453 1.3048041889495086
C 6.3223528806285465 -0.18712661980568945 0.540686449159142
C 5.288991805071243 0.07077248552696198 -0.2267945794853932
C 4.129406190193279 0.6861521549626703 0.4018221751990925
C 2.8959742087764644 0.27125070491795916 0.20420815680266466
C 1.8001825966047955 0.93881121889511 0.8679325626497767
C 0.5366941257174859 0.5591583523923963 0.7022407654694721
C 0.12443043550649051 -0.5490714578399302 -0.14915298842371852
C -0.13794126549954036 -0.16695428659302353 -1.5782142088327538
C -1.0425815270580212 -1.2151048406131049 0.39846460209723794
C -2.2083636774132414 -0.7796200655281292 -0.03240082235027935
C -3.3018666347770154 -0.2679162927286739 -0.5426888280024716
C -3.7675187535312924 -0.9088509227774118 -1.7550448325455683
C -3.8348048328226723 0.8309477522210162 0.18834815343707895
C -5.061473861904241 0.7150677197289529 0.6790627384684231
C -6.257549633232222 0.38675354390336175 1.0580607361653487
H 7.093479621977808 -1.5795083371104135 1.8021510555572624
H 5.364294049332861 -0.1894412545645324 -1.2678802340200481
H 4.320705076632107 1.512645886213201 1.0498030997880123
H 2.6966461945564126 -0.5644039159472548 -0.45028989565795696
H 2.0359086115325518 1.7670091490085047 1.5122983199118352
H -0.24874317638125867 1.0926642740788466 1.2225494079406891
H -0.1947433616767248 -1.0407233533211326 -2.254847658602287
H -1.1424975556583692 0.30651913882034293 -1.6039214916528188
H 0.567046782501071 0.6092690046528585 -1.9483829934585928
H -1.1456307929258365 -1.9998320237281222 1.0917877831063998
H -4.7163883567148845 -0.4229079812490855 -2.074952869050829
H -3.9323310693550257 -1.9891198266250865 -1.5610960537060126
H -7.086135538530951 0.6098490646429136 0.4278774419969216
H -6.395874050618769 -0.10425028705643836 1.9935698190896096
