16

C 3.435242936738875 0.5327495333292858 1.2416717271280593
C 2.513622927560409 -0.3290996261357201 0.8443789191795302
C 1.885386287429342 -1.2234157377606927 0.12010851688722614
C 0.9204941583294534 -0.8039663940063192 -0.8456547221295939
C 0.17144307595895225 0.22557947305573867 -0.5063421666041815
C -0.5986873899736893 1.1860279925079966 -0.021657279721354634
C -1.7710259660918573 0.7491768452247943 0.7184609498763652
C -2.769691077330314 0.15680621695590882 -0.25116205880333364
H 4.277664930190416 0.8029341222804878 0.5856541796767422
H 2.0901086480499074 -2.2742351550091215 0.24359307747732906
H 0.6930016270212981 -1.1799713748688696 -1.8047691191426538
H -0.237115748849939 2.148235697652843 -0.24959171464294996
H -1.4855560086105373 -0.05379033584650346 1.4293445054225538
H -3.7829884335087636 0.31918348671234403 0.20603023694005726
H -2.7088964713588983 0.6821373064365901 -1.2228720762082785
H -2.633003495554619 -0.938352050528788 -0.3291775815363349
