12

C 3.5641161450353 -0.2799085365142765 0.22014431619791977
C 2.299620536863742 -0.20615907312574744 0.5281708412461908
C 1.0295312740819824 0.12550081204686925 0.7062992560422026
C 0.07517241458780073 -0.009229264315329666 -0.3671182722765678
C -1.2173219760990663 -0.06732994837926752 -0.1463479172882093
C -2.3811644299018324 -0.06784867219136133 0.7498705375693303
C -2.582876686191824 -0.1805998976332767 -0.6118636906565326
H 4.02078317443179 0.5496623034705532 -0.2611017470953174
H 0.7710953654414342 0.49437094357741435 1.6852912128891244
H 0.4451196942822501 -0.0621750699558197 -1.367502280561266
H -2.755247182670884 -0.014990773169494239 1.751991973148472
H -3.2688283298607343 -0.2812928238101667 -1.4354233762574222
