15

C 3.4502795351426894 0.8946814534603666 0.35746463134502204
C 2.2869022585306102 0.30562908756238466 0.45915495111897947
C 1.198941493888329 -0.4490268880244308 0.5056240018757848
C 0.39433301741107146 -0.5008485496747893 -0.7148030882583762
C -0.7323307424112692 0.5353637916856709 -0.5884266212191844
C -1.5856032940536315 0.224446850544607 0.5921502113350178
C -2.874341085941672 -0.0388593275521664 0.3983071322318948
H 4.249914163438315 0.320687489483661 -0.08475210663912808
H 1.0259074510189972 -0.9382410415543262 1.426287311751913
H 1.0064516497084188 -0.30127461516911336 -1.6111080029790887
H -0.046095384531265896 -1.5065341368222362 -0.8205036057779636
H -0.31159643184086105 1.5556466987472002 -0.5611109649140621
H -1.210330738063047 0.2007685246613118 1.6102148343342215
H -3.5436917178524423 -0.2717107516423189 1.2185264349035898
H -3.308740174444343 -0.030728585705697063 -0.5954449436943893
