32

C 7.05309386947371 -0.8382956477906486 1.6334522623830463
C 6.086540051653865 -1.0140909861546592 0.7682053273568673
C 5.173926637938146 -0.8807401289375405 -0.12993394422160076
C 4.223211358486132 -0.7959112082137705 -1.0139463527855541
C 3.0439018976345933 0.010996597147321888 -0.7118053491389232
C 1.7891211177346702 -0.18911821976363127 -1.101886149125266
C 1.0496217419989804 0.8776975733457661 -0.5354863004671162
C -0.22618121697657262 1.0250314789948296 -0.6933488990442646
C -1.5296427421850707 1.1287367365999075 -0.7437497355635164
C -2.2639613281924498 0.4474405451585043 0.3090876640464533
C -3.7551497635337587 0.5233892238464524 0.17276844374325664
C -4.256948725519302 -0.07637192787120216 -1.0926022718525357
C -4.504696901093172 0.6584385090831759 -2.174989949107953
C -1.8375469721636657 -0.9927169652119714 0.4905778618280166
C -2.650947088856102 -1.5671431809161906 1.5789033051015788
C -2.2396915980597 -1.530214214278635 2.8387651131037352
C 1.8694303202989053 1.7588282408156914 0.2237175005363014
C 3.108610468077048 1.2336367895985556 0.12312890894305396
H 6.976275368121253 -0.16553240470297165 2.4676237463029236
H 4.3604923516932095 -1.3333545240442313 -1.9331919995677276
H 1.4670195490257016 -1.0080838615414647 -1.7179288325483983
H -1.8585059338767453 1.7063933516448524 -1.5626140447006922
H -4.157601560092252 1.5388008318475528 0.3065164767099901
H -4.193133256203284 -0.09497831526140867 0.999828881195598
H -4.867848207080183 0.12262690432503076 -3.0455556976276013
H -4.336654773109918 1.7248968083251532 -2.135521650905612
H -0.7699643500771315 -1.0425536391122698 0.8250246431692597
H -1.9267990348718675 -1.5740623639263478 -0.4676527940909266
H -3.607607037889491 -2.0266682879248563 1.3159135443841519
H -2.8147571448264674 -1.9415298583953893 3.645369352003319
H 1.6005883464093753 2.661292168875011 0.7755278771360545
H 3.995804556061494 1.6531599744400087 0.585803062802701
