11

C 0.24889711338364529 -1.5139739740366653 0.01292737238787045
C -0.2709540171854126 -0.3032445495514684 0.011489193288104809
C -1.749294995051914 -0.12129290119834112 0.22065405702228352
C 0.47318486464308934 0.9220722056063966 -0.17987237695587752
C 1.7604854636406075 0.9318832593001489 -0.3729670400097849
H 1.2936781634585839 -1.6826938203980792 -0.13226837733534494
H -2.2543661082482545 -1.0569396965470883 0.4693502621505028
H -1.9204287967416485 0.6371498777231803 1.0142368150706633
H -2.1340833498458256 0.29468484760251384 -0.729785669603079
H 2.252873960235265 1.892693666790936 -0.5094031031453802
H 2.300007701711859 -0.0003389152915543211 -0.39267611741160463
