17

C 4.292416817531929 0.40271079667657644 0.5449355349506109
C 3.2862794040613585 0.3138305777084343 -0.29308327474136214
C 2.3401958150973377 0.08317790867970067 -1.1796902343554911
C 1.0147074389387587 -0.3636582208916963 -0.7998579786733995
C 0.290184882094734 0.2410116105552776 0.12726769403368418
C -1.047030957989559 -0.17395115436382946 0.5408244498833348
C -1.9000505203462665 1.0611059260545863 0.7393970820390618
C -1.7462913030078038 -1.0816955351609159 -0.4119035041220197
H 4.424789981426029 -0.4445615370831945 1.22449703529398
H 0.6042980427283542 -1.2386735064670102 -1.3066097929625557
H 0.727898478895362 1.107772233723716 0.6114207788193178
H -2.951475949440934 0.8806328222515037 0.40580913039889616
H -1.4599610133998537 1.8995204770871332 0.17886677179603216
H -1.9155305743993918 1.2510115438932594 1.848581087801576
H -1.5489720851255115 -0.8477829621659707 -1.4820922461098898
H -2.843019854266335 -0.9263245086561144 -0.27271302117619134
H -1.5684386028004997 -2.164126471842598 -0.19146417478068198
