16

C -4.185689757750697 -0.6174931080543558 -0.2662475189746687
C -3.058130812961252 -1.2527507839543952 -0.03725812312329422
C -1.8030510418285877 -0.5898870731448789 -0.1795778693355757
C -1.5927286809023236 0.6641753271589936 -0.5347671254509837
C -0.13891672578836997 1.0578351391137888 -0.5911666984207063
C 0.6010588984577877 0.3318615362318016 0.4725073624202255
C 1.8970253111702013 0.26592412895575923 0.44987461941320583
C 3.1386567129645058 0.08595717779319204 0.19254908105050014
C 4.4392134730458634 0.030507434255693754 0.1281854450984815
H -4.149862249020513 0.4164049957969993 -0.5645878970324121
H -3.051050655502081 -2.2913179881483234 0.26414375689390535
H -2.3712913096192927 1.3730434568068954 -0.7711828682037104
H 0.2327508340695852 0.7051834844658817 -1.562088109303996
H 0.10511884498887705 -0.16522692798379074 1.298067851187415
H 4.85702488612902 -0.7275799925112262 -0.5238752912918306
H 5.079872272547284 0.7133631932179626 0.7022178854213905
