24

C 3.423061999650393 1.2578736359041252 -0.17845880497059913
C 3.8767016917006516 0.03711599351879806 0.07486341951859168
C 2.9554889602211976 -1.1099210330160267 -0.017440989040287805
C 1.571575166842006 -0.6044283614454186 0.2535914746823895
C 0.6304463066391208 -0.7310782749510687 -0.6607288202550944
C -0.6839426526942746 -0.2503058743532775 -0.40170974772044504
C -1.5328714624026143 -1.1813107896793642 -0.06019446382887505
C -2.436130448586034 -2.0703618228706864 0.28644114223950007
C -1.183843901735496 1.1098319002697905 -0.46841188621900476
C -2.615133924987286 1.2124306961016005 -0.1272964143578541
C -2.9734773354251267 1.966694408718016 0.9026317636338819
H 2.411750965208512 1.4933740060727023 -0.4537997661502451
H 4.910078929213581 -0.0799380099951916 0.3418255239423136
H 2.976754267631886 -1.5380527231050651 -1.03599979118196
H 3.2305595262345412 -1.9317610237769547 0.6795876807059616
H 1.324536287026327 -0.13210558537850786 1.194350201248654
H 0.8551311115996505 -1.199504914304769 -1.607131624271821
H -2.9624486281946476 -2.4921064150666083 -0.5243186690723256
H -2.5023225435813217 -2.2322205231290217 1.3298315589230603
H -1.0605879900491788 1.466121571402613 -1.5340357374467732
H -0.5714999090934562 1.8305744993306794 0.12816946828667394
H -3.341752961768651 0.6660691594603886 -0.7300866419169542
H -2.254935316210074 2.4978646619686447 1.4867610240781475
H -4.0471381372394175 2.0151448183246803 1.121560099173015
