16

C 3.524563702813322 0.5237226765011406 0.4020782039930378
C 2.93487232909085 -0.6373981501865312 0.21968742705577474
C 1.695878144555333 -1.0589177093474116 0.7964421818725346
C 0.765528795630558 -0.1500033891590379 0.9074671221427719
C -0.1320185670332521 0.8152899923427867 0.8970909758192739
C -0.9322470522126459 0.9143282751447501 -0.31578230218466063
C -1.952344171840291 -0.20311657296715405 -0.24928867019575876
C -3.1188067389933436 -0.10380070515459074 -0.8467664846788859
H 3.031147913175883 1.256880344610754 1.0603618285646983
H 3.4488773704845683 -1.3326978006571801 -0.43349757020966434
H 1.4150463335212156 -2.0073679150891417 1.149709296740477
H -0.14658778113877363 1.3895199514241074 1.7767311079242598
H -1.5422072739238832 1.8554094164890564 -0.2643055525645603
H -1.7342199808144922 -1.1153713133715097 0.2995225338276261
H -3.4299872313471993 0.7693631561000599 -1.4202472902193763
H -3.8274957919680874 -0.9158402566800515 -0.7831027850610496
