14

C -1.2580242578440104 -2.101362462795414 0.29250681992845673
C -0.5842633258081775 -0.9553194251454866 0.14185130043974536
C 0.5141798848696172 -0.11465138715952501 0.6182197546641105
C 1.936866376242521 -0.5102067033171173 0.5111693666533245
C -0.31818419618842037 0.3237219306903205 -0.4982397778002641
C -1.1761651945990421 1.535053367131281 -0.22767774455347925
H -2.0857460609743987 -2.399071523797444 -0.3023342585804316
H 2.2143077089841383 -1.0460032446298564 1.464108213238243
H 2.2164240933094304 -1.0642243198939152 -0.3845302795707093
H 2.565775119863367 0.4203745765507947 0.5254227262766499
H 0.013120268936393125 0.23767903985561908 -1.5730357643028565
H -0.7436766975207532 2.3737558286709226 -0.8479970626930818
H -1.0798933695634503 1.887888917237558 0.8228868441729003
H -2.214720349707165 1.412365406602271 -0.5423501378725949
