22

C -4.8199672884812 -0.7335770429145533 0.5434683204332321
C -3.5596677279483098 -1.1158494811767312 0.5695644718281602
C -2.5082690046388056 -0.20656142103526345 0.16619602322788674
C -2.8125848051732976 1.1696592147399136 -0.2830058401233734
C -1.239185727943546 -0.6083598019658651 0.19784035357655044
C -0.14455005242074623 0.29882801890897553 -0.20857029066003027
C 1.0897044825434208 -0.5120240763700215 -0.3676471019765163
C 2.249306553411507 0.11675218001982104 -0.2427916626668202
C 3.506843909582508 -0.5580587977046768 -0.37502575030733537
C 4.568731522031641 0.1441197451538652 -0.06017254885007942
C 5.585020917332526 0.8937046568290579 0.2789662328009331
H -5.0633102599473006 0.25021794039835366 0.2234076848074513
H -3.33753033780173 -2.1303003572115373 0.9019878723957135
H -1.9129605314799476 1.819850883077903 -0.27728513038580477
H -3.185562849220975 1.1325873462165903 -1.3252334387307438
H -3.594263651497993 1.655402759815996 0.3458745505573767
H -1.0206874525300196 -1.6077746692755766 0.5257512161007952
H -0.39868924385693033 0.7905395108308095 -1.1697039240530958
H 1.0142623193030762 -1.5635986422206043 -0.5750980554781643
H 3.713233735792941 -1.5466531004059056 -0.6910697971574105
H 5.866386926484753 0.8488876496740901 1.2963865802442862
H 6.003738566460244 1.4622074846164776 -0.52665232888719
