18

C 3.8070446588837155 -0.1608532166372912 1.3179179870647497
C 2.4836269846600283 -0.05482333132931556 1.2880694490691964
C 1.8641090647466363 0.38274207669375515 0.026112634801038606
C 0.39294838459153 0.2105404519663182 0.013047097451846361
C -0.1991310244824162 0.12196085467879023 -1.173828722160188
C -1.666659406415685 -0.050340471831167376 -1.218760214334568
C -2.2563829747200086 0.4713233064461858 0.061371393190683576
C -2.950970416902474 -0.3199501462646758 0.8639448120702496
H 4.43904519508632 0.05387141956510553 0.4784983758914666
H 1.8927355722105448 -0.28441703854945805 2.165654159094426
H 2.2742166786017743 -0.2620516316574284 -0.7845252383022392
H 2.1645138890823747 1.4334409832495993 -0.21722612222720752
H 0.3315567992800816 0.16857673710122115 -2.1191571014461466
H -2.0996064721265175 0.4580838200950912 -2.0931124141112365
H -1.9009858335298406 -1.1258898814891876 -1.3211014931852478
H -2.1210944249985926 1.5074805686185042 0.3474855038243663
H -3.358374497102836 0.09431756484278271 1.7753418368420861
H -3.0965921768646623 -1.3667179444892628 0.5902680564667346
