16

C 3.166177046171722 1.3457450154848558 0.7837164585743245
C 3.297816256319206 0.05001507567656598 0.5918284445236502
C 2.3170327403310713 -0.9209786951675165 1.0843829511604117
C 1.214586883114009 -1.1202331621947512 0.38470738353863954
C 0.26207776866188365 -1.1059052548659503 -0.5346097066415716
C -0.7478343662765972 -0.07296704696977224 -0.4000382553676361
C -1.9971039909156216 -0.41948961007273416 -0.21951902549145932
C -3.0998154638999944 0.5658367709964144 -0.07134851471312355
H 3.938375498851605 1.9914351554437038 0.3854374409774776
H 4.142031375362455 -0.37602196641394015 0.05656129399424019
H 0.32178954355573797 -1.8486707166337424 -1.28986814925315
H -0.4025029812928044 0.9491045474430962 -0.45794500815069616
H -2.269823108598082 -1.4610289976298414 -0.1717566732597432
H -4.080228270692846 0.10869619642024364 -0.30853510052096245
H -2.927541338425015 1.340573312023593 -0.866372692379152
H -3.135037592266821 0.9738893764598475 0.9367690530624767
