6

C 1.596777683591445 -0.12627384594801228 -0.3456575201806218
C 0.27133793108623167 -0.08308069932830157 -0.31284841268236874
C -0.9907256096926429 0.011157189162490875 -0.04628661069888952
H 2.1299372769486755 0.11382003715308744 0.576198980534761
H -1.4922837903188229 0.945360065314488 -0.14069657403570718
H -1.515043491614888 -0.8609827463537505 0.2692901370628256
