16

C -0.4975320732228458 -2.0311407454523303 -0.9872907659106838
C 0.05465374193570111 -1.2817502482928178 -0.05418029883212545
C -0.8658668888500531 -0.5656347559507755 0.880288180817157
C -2.03957421464589 -0.031678641735383074 0.1533338461488283
C -2.082108684172405 1.251018721993878 -0.20332944483367887
C 1.4792980357584125 -1.1153546341473608 0.11453147762613924
C 1.8885143409176903 0.11596915569327898 0.1519186898624377
C 2.273483212029256 1.3794161532598512 0.2406215316399874
H 0.15195370400980704 -2.5478939155388076 -1.6611716469959616
H -0.32223274817768816 0.21410973987333493 1.4278546351026742
H -2.8630394945245206 -0.6786455185793986 -0.08958225399076258
H -1.2656420472303642 1.927596045150316 0.028338010007923534
H -2.942583382397041 1.6443913023605967 -0.736756820641893
H 2.229790140425829 -1.8687431153950889 0.21126889742021895
H 2.51881089792221 1.8037097374410536 -0.6937818950392616
H 2.282075460221883 1.7846307193195907 1.2179378576190223
