26

C 2.5242849090656936 3.354013063447298 0.3959679326878982
C 2.704602661809855 2.1855400881229055 -0.16252496489455012
C 2.6248025496531904 0.9449057067758027 -0.6109498659551128
C 1.8846189041902837 0.6029721071635468 -1.79342301939911
C 0.9616916854356815 -0.3094811161842957 -1.8980185436771502
C 0.5215711525730476 -1.162539721471187 -0.7701608654415049
C -0.5424440090850636 -0.6893932037756013 0.02552989222503311
C -1.02848598491527 0.46253357409826473 -0.3178063940658386
C -1.6162006947321699 1.6078660031943812 -0.4303915395181597
C -2.725027960445589 1.6225875972143184 -1.2707503469081594
C -4.001363063337075 1.5547621120828752 -0.97772437006715
C -1.0426409920387134 -1.469164601412925 1.154667340483617
C -0.24848790046490113 -2.6903611513791637 1.3555641379419792
C 0.7532104423318936 -2.7915624837058473 2.2109700553083194
H 1.5622206786854596 3.5252208767923987 0.8999615036831388
H 3.1491913297286023 0.2127169544074735 -0.030208724143354876
H 2.1222309764012763 1.1704324993205701 -2.70355118074078
H 0.23311904578483045 -2.1508103956018436 -1.2427998783236391
H 1.4773846112777511 -1.4203636076030075 -0.22249940302404073
H -1.282493638589716 2.4648950272118855 0.07595600686841093
H -4.267969124967362 1.4745568088872598 0.06536788074535992
H -4.718424138816207 1.5811108958772444 -1.7713384861761237
H -0.9320145624378341 -0.8374241671486612 2.08272496191297
H -0.5028182340913925 -3.5607968658765308 0.7635219234147039
H 1.3085212118326404 -3.7135719115389105 2.322964717376763
H 1.0809201451521657 -1.9686440888998518 2.84895122968645
