11

C -2.958841053625686 0.2955927337476668 0.7809361880155935
C -1.8010743038582664 0.229217232525348 0.14321808576120162
C -0.7937041537262954 -0.7700173026869974 0.4558918074813083
C 0.4833007871886929 -0.4765761949945105 0.5567804372375396
C 1.7362373338679045 -0.2234117275459234 0.3069957488345741
C 2.899711002497909 0.13954793289416717 -0.12514075950276712
H -3.66289499680084 1.0542065590283831 0.5068902796817688
H -1.556017898356946 0.9366478988258529 -0.656594432379857
H -1.132952756751065 -1.7860396676582406 0.6067184135877128
H 3.2338306292114583 1.1496266171122593 0.013113134244665987
H 3.552405410353141 -0.5487940812479914 -0.6259084087709743
