17

C -2.7276192148911047 0.8778060957318186 1.1742792556555106
C -2.5633695851723335 -0.3875764268101684 0.8515466575849734
C -2.2490335341833414 -0.7399452887556025 -0.5485327502592082
C -0.8971260798665536 -0.35062140171381995 -0.9663173607676635
C 0.04791124664201976 -0.2989934386834114 -0.054096106518988336
C 1.1450686934311944 -0.19638151072742163 0.607830577462882
C 2.1725677502592022 -0.029136519633645778 1.3956226158091165
C 3.3673178813912785 0.6374799118680439 0.8140946078134365
H -2.6500724686635335 1.7009453941271517 0.4847510700038233
H -2.6513556253386388 -1.1749434456573313 1.5784749324873308
H -2.9674661705196654 -0.1654562212264806 -1.1901278000217912
H -2.347159028979711 -1.8397550159588394 -0.7400324634792814
H -0.7077956564891448 -0.11625004401913583 -2.007123619385352
H 2.176055480309586 -0.3532205508489785 2.4280137763599776
H 3.1035194149948064 1.71767319163813 0.6787896778770995
H 3.468595341108055 0.23704675833171904 -0.23631712261272556
H 4.279961555967939 0.4813285123379758 1.3891384983467665
