32

C 6.082214313777012 2.1151078260344227 -0.549452495140602
C 5.5100777167852035 0.9372270577617504 -0.4351602280259081
C 5.04487485132316 -0.2593156602854644 -0.3192292509877588
C 4.388816234743116 -1.3510685072653335 -0.025773678488298434
C 2.931263244494232 -1.3858591594933463 -0.017819598154387387
C 2.1693569907638346 -1.5252678357177913 -1.0943975407435598
C 0.7350491025921386 -1.5089069709417382 -0.6354793081498371
C 0.06383637617238376 -0.42174231317591687 -1.3200871502633835
C -1.098398011151079 -0.07069661892785618 -0.826040207684711
C -2.2292346638776426 0.20529114519194813 -0.23032741793552114
C -2.1690789895285763 1.1877334777095767 0.8272843227302724
C -3.0778378195619513 2.3322306589181148 0.44491690468127776
C -2.6153165443337407 3.3926360116409238 -0.20222738759788655
C -3.3745982572584676 -0.5323084893066239 -0.7331511237725249
C -4.035857843932089 -1.3845603705074223 0.3203780859921531
C -3.424778596077311 -1.8117413588265323 1.3928426147616024
C 0.8130513029384951 -1.343086161273851 0.8258157658563162
C 2.084658129985342 -1.272449201930337 1.1780265832722636
H 5.434892879111895 2.980897557050008 -0.5261093557063794
H 4.942099105554119 -2.2438920146370687 0.2152762282073597
H 2.4958537033295434 -1.6313480896883892 -2.111383646610927
H 0.3323773790412605 0.15448234294521251 -2.155178315130836
H -1.1750294377614012 1.6419107728557536 0.9634996611583425
H -2.564337569800334 0.8050826387546107 1.8123271072942821
H -3.332079672734108 4.166646606736041 -0.43787702891959046
H -1.5866264461523778 3.4764517643619945 -0.4761299019803172
H -3.1951550401744844 -1.1674335710163726 -1.5972631045384107
H -4.157045896690324 0.22493876454825074 -1.033338734802474
H -5.075301434236345 -1.6516645336062095 0.16988831663920384
H -2.4061652294458358 -1.6225750203655647 1.662580545011998
H -0.01901602254415827 -1.286747932774102 1.5096847920908598
H 2.507436144648439 -1.1499728147685677 2.177689493376884
