23

C -3.142004861456384 -0.35066233168397865 0.4855175147908926
C -2.34756182562147 0.19645278678529576 -0.4201528142302491
C -0.9200475075826313 0.1930379509517363 -0.25943197619623204
C 0.2828127943055108 0.18601617066022152 -0.1441845391448082
C 1.705245645341686 0.19732384042650553 0.003867528284707409
C 2.341849873194485 0.5345593528296081 1.1099718621434538
C 3.7963608286577277 0.5453490394132486 1.258925149337691
C 4.46853225931998 -0.6403020849116843 0.7103981897479236
C 4.766351428759519 -1.6511653471249765 1.5043051871636597
C -2.921219818727781 0.8172316101348334 -1.6073428863778016
C -4.246904518149731 0.8286238266829977 -1.7714015224982544
C -5.168468469711373 0.22751415703525274 -0.7816190644853497
H -2.7232169605916083 -0.8134826957694388 1.3697374485371439
H 2.301162753235592 -0.08917750317806449 -0.8457264657064649
H 1.6905335885714887 0.8198636165369501 1.9516498164428817
H 4.054052344183239 0.6670124822597917 2.331311231232888
H 4.715523250860632 -0.6823052068943034 -0.3318922748251998
H 4.522840173920093 -1.6276659690714832 2.5701677164243515
H 5.2576692585937685 -2.51216861056925 1.0912524540695678
H -2.310082595567115 1.27528711958951 -2.3714330061747764
H -4.69475010073271 1.282408844664263 -2.6422717457845257
H -6.023017678105 -0.29199365249829484 -1.2250562098096989
H -5.40565986277259 0.8882426037103929 0.054686771276675934
