13

C 1.8952085883010457 1.0085650014382685 -0.1412473132146819
C 1.3885892514008897 -0.17882216618045185 -0.3610964305730459
C 0.41973377369305565 -0.7970801427269975 0.5685086379846679
C -0.7451451935521339 0.1012146995015819 0.8752403682556691
C -1.5357505996211807 0.48405118033885963 -0.3346622835855831
H 2.60054818225795 1.4117398418047422 -0.8563505814008521
H 1.668262343152399 -0.7359756736206513 -1.230443142730729
H 0.9703797204407922 -0.9369890757552376 1.5438539129375064
H 0.10764906754319442 -1.7946034907205584 0.25692713337193845
H -1.4205311294197167 -0.44827300525830593 1.5618526413163138
H -2.1978571792952923 1.3433328342881912 -0.03332404793167382
H -2.2443584151323748 -0.3080178942957242 -0.6741172957518119
H -0.9067284097686387 0.8508578911862649 -1.1751415986777094
