25

C 5.159700783037458 -1.0653720995460856 0.26177808283009185
C 4.210135624815394 -1.965561779303372 0.29247914284784415
C 3.169500459852334 -1.9509150784851095 -0.7087755158382822
C 2.1118720701289284 -1.1837168550925923 -0.6172943676605217
C 1.1794499883017346 -0.3030286799764278 -0.4407448291736197
C 0.3004309224622857 0.6201256778429041 -0.18036773375243956
C 0.7091026208963244 1.9433587913052217 0.35903776142240884
C -1.1112420308393463 0.34314887829915447 -0.42534943098963257
C -2.0291457342462986 1.1870378222837419 -0.007294544058073221
C -2.8477243419294545 2.1890130363820726 0.14367708766539172
C -3.567854770220074 3.245224916590664 0.35654032665020213
C -1.566303916888873 -0.8359762859599081 -1.1187968339584902
C -2.270433264250837 -1.6789419095494251 -0.41144593427007303
C -2.9739468225230814 -2.4816608420298594 0.3655940609749957
H 5.253235147728694 -0.2851595388926347 -0.45608156515740117
H 4.2021341366488425 -2.711586634408798 1.056047051336106
H 3.263153823943208 -2.595658405939088 -1.5672169515474885
H 1.8027833987871162 1.9817267649648187 0.4709436158618505
H 0.19546574842333397 2.0761396840369537 1.3425620396919442
H 0.3772623767353298 2.7028785375205375 -0.38229700951510354
H -3.38167202592711 3.872459479215597 1.209975219121287
H -4.361021849369886 3.5111596064333335 -0.31454831996911387
H -1.4116746929548127 -1.1199498139971507 -2.1250056315217734
H -4.013247714194623 -2.28655559044166 0.36934655772966224
H -2.399959938416656 -3.2081896812528616 0.8771753710498816
