16

C -1.0131898975939846 -2.495579237820804 -0.2140106455672981
C -1.4000681988821115 -1.333215670392277 -0.7096140469476949
C -0.7919653870017878 -0.09041915772552993 -0.2562853658123647
C -1.0977769681131913 1.1241255361610307 -0.6786087450063205
C -0.2694302450290504 2.1050785726551533 0.01419062543333516
C 0.5430909780592086 1.5015483843560662 0.8589758658270524
C 0.2740775759425633 0.06496858758622773 0.7517308631229976
C 1.5154381910467885 -0.7311200918724691 0.37772127073641454
H -0.24688417171989313 -2.5889436462888686 0.5333390301278488
H -2.176477141104627 -1.3357918094122654 -1.4565353022513112
H -1.8603256517480797 1.3575652307002697 -1.4364319586711762
H -0.2922100774156294 3.182971979958033 -0.12148370595945752
H 1.2614627254363457 1.9926376255788447 1.497888221966032
H 2.3955615224315787 -0.04966146815555309 0.24071361824745352
H 1.7572857075123682 -1.4463159104480796 1.189927454517184
H 1.4014110381794616 -1.2578489248797955 -0.5915171797627133
