44

C 6.337629581045122 -0.00995366486891579 0.2922435275372494
C 6.088458776275007 -0.5076579023938227 -0.8836470946826123
C 7.123479662690262 -1.2766420529823355 -1.5687481486147015
C 8.331510003928674 -0.8248556356235238 -1.4512654998190437
C 9.537059103097027 -0.3069638194871613 -1.2885857702255303
C 4.815621143894509 -0.3325425152617572 -1.5542380426982423
C 3.8329105562328363 0.3446475433993333 -1.0077396389681132
C 2.5733318977072104 0.4801471949534041 -1.7455433354810292
C 1.553050788092992 1.1557642561074546 -1.2320806461070672
C 1.6323846902745989 1.7976775647861942 0.09158451582868367
C 1.7487737217032853 0.8402966760486836 1.2069565832014275
C 0.9955828165813627 -0.22572479638384427 1.279282850998026
C 0.012445472019846764 -0.5397090868750409 0.29193874478938364
C -1.181723901602357 -0.011343019142161983 0.48378878854766716
C -2.3601178266698417 0.47624316084041757 0.8115692525147329
C -3.18426917200025 -0.3747630247681219 1.6593360558920949
C -3.6934751647482846 -1.590653642639287 0.999286544273261
C -5.003175284313918 -1.5325266438296667 1.0613304773723073
C -5.448785222328333 -0.3417526690296319 1.7293287898425154
C -6.804655309679287 0.09256930556490892 2.0002518082125937
C -7.663189065043629 -0.13975056397042165 1.048107949579652
C -8.4519434154284 -0.3111765512280648 0.002417123850950639
C -8.47793202103131 0.7800050605300071 -0.9604291621153882
C -4.381231268331334 0.347623938545565 2.0857572725440026
H 5.61192261778608 0.5594352257164179 0.831937031561274
H 7.006205604391116 -2.149128142912573 -2.143356395888153
H 10.05741315165993 -0.6734558006573372 -0.44475070658222954
H 9.809512777606383 0.4004827913235189 -2.0247551695360713
H 4.6928986442945915 -0.7850484514826996 -2.5405946301160585
H 3.8682899298877236 0.8174517704265721 -0.05118341303850745
H 2.4958864197368493 0.018104232657528443 -2.71451919082892
H 0.6354244794603342 1.2426301179365709 -1.7928484104720883
H 2.4508340162175357 2.5324116127806113 0.08782099721615517
H 2.4926530805128593 1.054216522344682 1.9777710060540328
H 1.1135462107535707 -0.9105332539474585 2.123093264778361
H 0.06951523148719159 -1.1302880896309295 -0.5792490457834804
H -2.544287753603516 1.4323485998617618 0.4077581059449163
H -3.06976097694596 -2.352343851972738 0.5642542770985244
H -5.635600215997346 -2.327894687225209 0.6364068554948659
H -7.194417684776037 0.568714384540355 2.85238134975394
H -8.95964465966375 -1.2348898104668076 0.015524255432769607
H -7.472580936846199 1.1511954304805934 -1.2520849382670836
H -8.989704890990074 0.5032159203332599 -1.9241030808196242
H -4.3698456073415155 1.314453146032513 2.619594891725098
