30

C 5.1713489696851385 3.365641155207389 -1.0582659742634044
C 5.101971265838736 2.238015513599741 -0.3710844400104112
C 4.681526118981695 1.2085497811731616 0.33911353506751385
C 3.9960976456793267 0.10241009256133177 -0.29399487340427377
C 2.6497321320431046 0.020894931059031587 -0.13778131443084862
C 1.9246593034074224 -1.0521874460110618 -0.7425418029619364
C 0.6987737794065862 -1.3564029023676523 -0.7449192266255901
C -0.5071111263612129 -0.781359975471356 -0.15106272538261725
C -0.33566602671214923 0.3903856879431951 0.7366094892147332
C -1.635159026724196 -1.39088512222646 -0.41160167652104596
C -2.9423803263346326 -1.0772481687414013 0.004875455777133408
C -4.104006650403995 -1.9302713445625466 -0.3813494428455317
C -3.967052891854686 -2.9989408811107334 -1.1168802222158114
C -3.331503812460321 -0.029796504467991567 0.7289304736015565
C -3.9089090673586977 1.1331702050723285 0.9637340236154011
C -3.985986683077755 2.3659220356232593 1.4377441880122028
H 4.273542483210009 3.9846409190695438 -1.1513130264719122
H 4.877536294654183 1.2482513619279776 1.396419779067781
H 4.474587876862369 -0.6611097805265774 -0.8799726695330381
H 2.1723475270066563 0.7839135051616198 0.427464961531762
H 2.6131189532582377 -1.751667297052975 -1.329200658642623
H 0.4365947695879691 -2.299228337464649 -1.3432125621504496
H 0.44587924928754774 0.09631704315161382 1.5163584727480184
H -0.0502753499055294 1.312306281942091 0.23314733915523927
H -1.2283869990384686 0.5514428642070729 1.3885608837780676
H -1.5279516194774445 -2.287291456441501 -1.060267965472457
H -4.886751015463293 -3.5673408802396236 -1.3512482962662162
H -3.059471672852897 -3.397030602698498 -1.5259569392180425
H -3.807565332246788 2.615376737503034 2.469573339938846
H -4.239538768639275 3.163522584180519 0.7618585431298125
