18

C -2.1646622811506626 2.168411420795318 1.0741768684733561
C -2.084365896680988 0.8321722307438906 1.0091141272521447
C -2.1908360675037293 0.12737238974525839 -0.29552525217031134
C -0.931752528637972 -0.6256449878211097 -0.4978162336662651
C -0.9004796884866016 -1.8755655736670167 -1.2583118022282223
C 0.18533998611485114 -0.15775932749022814 0.019756321965851375
C 1.4460674027685194 -0.8536570441973621 -0.14714820257306557
C 2.495358586852487 -0.09481841875464013 -0.3204520296480059
C 3.5010158392769535 0.7236717904661758 -0.4909388595776633
H -2.308040127326061 2.748004332989438 0.1758104897217166
H -1.9408296241056051 0.24922692190363532 1.906956505908719
H -2.3313734891740614 0.8391949732714296 -1.1300726042672673
H -1.888864077784021 -2.261824687363803 -1.5345327261448651
H -0.3591546138389286 -2.7069931898861137 -0.7209653364694415
H 0.15257550833567204 0.7725894464696953 0.5838773580173159
H 1.6339860534090556 -1.8890932234183537 -0.14807038272706582
H 3.7037447434308937 0.9777654502303622 -1.4966692899074716
H 3.9822702744999545 1.0269474959833074 0.4036763057254719
