44

C 7.348444802618244 -0.6264677092947133 -0.365616391507032
C 6.45513887334642 -0.5237732747995688 0.6009887220439788
C 5.469452998558787 0.6147045722648286 0.5436778896459236
C 4.833581916277857 0.5936806409640161 -0.7551678108022447
C 3.743785325539576 -0.14988313804205713 -0.8677084894629108
C 2.7051937226858285 -0.9071799305717192 -0.8279497215523764
C 2.691651064824135 -2.296281648216779 -1.0930327965628213
C 1.423291152950046 -2.7266880129257625 -0.9460210757402552
C 0.614968489924126 -1.5356654191248287 -0.5701099064803257
C 1.393585760333402 -0.46754252723928313 -0.5055038885736629
C 0.8373969324681406 0.849173649721631 -0.15108455149551925
C -0.6267376293975235 0.8305967908073769 0.11032742590976256
C -1.4514217802894602 1.8214817043171798 0.45044472996095536
C -1.004423853189985 3.2399684840064342 0.6427657278951046
C -2.2161019607162684 4.088968800886255 0.8604002442079666
C -2.3332838913323517 5.273550958736632 0.285697359799453
C -2.7806602308607005 1.313035531454619 0.5931524126922815
C -2.828305899740406 -0.015522412340425307 0.3459191142639782
C -3.979955227275564 -0.8424969187078218 0.3951355379385636
C -4.157558384064727 -2.117403972214046 0.18175867357485906
C -5.506247143391958 -2.715837893425518 0.31066047763768834
C -5.64742339316918 -4.004208966806843 0.0881034782406113
C -1.4496567714033843 -0.37027754399862395 0.028028270583888522
C -0.8201018036045765 -1.4814704018646985 -0.29984385600740115
H 7.406917891739458 0.06810442875945384 -1.1977121853132544
H 6.462477532119165 -1.2519730060109338 1.390446337563715
H 5.990260749766395 1.5709115276719567 0.7562517787792644
H 4.763553318979215 0.4496048505788542 1.3689511657142914
H 5.059463431301073 1.0609255328815452 -1.6671194831034684
H 3.5278942806506133 -2.9238056592917396 -1.365473829841926
H 1.062363842509659 -3.7324508087540686 -1.0743075758041138
H 0.9857069895292422 1.5951669338062986 -0.9807764447986048
H 1.3618942732753563 1.2128636199632359 0.7781384894167411
H -0.4792015068672908 3.6014733552779057 -0.27266773875352246
H -3.003991417368717 3.7321945766100924 1.4930252690018908
H -3.2095122452132667 5.860067776536721 0.4579124306110166
H -1.5396667787129703 5.6568358006741875 -0.36446146277906
H -3.6721282268389555 1.8686756410144896 0.8615355561363706
H -4.93710859590697 -0.2945317849618468 0.6739361753329387
H -3.3757887618091136 -2.778077402783459 -0.08700162537327673
H -6.325880123281788 -2.0715073920199814 0.5831212130037197
H -4.789081664613685 -4.596317915431898 -0.18130620219746704
H -6.616422517129411 -4.490266738531295 0.1699123498430622
H -1.3863635432195272 -2.3823546995758704 -0.3707065000671422
