25

C 3.5216922894285227 3.2923699985817594 -1.245740429229153
C 3.673729373366797 2.6735224966827458 -0.09892253297771157
C 2.633416709611046 1.7276830626525495 0.43876058953869834
C 2.2520329112530995 0.7108869987302834 -0.5333170815129731
C 1.3415017183549895 -0.14230104248660413 -0.14787740852117803
C 0.4434671019219828 -0.9347436402823409 0.36254329960648
C 0.9481452822324826 -2.0936317531545794 1.060690558089621
C -0.9119448715649571 -0.5157139329994962 0.1443212248431552
C -1.2801920817084547 0.7332782656457701 0.19076178980580355
C -1.5485501848465457 1.9936845168867001 0.2824256167809221
C -1.7166103879618433 3.255583407449076 0.554050369963231
C -1.8980084611987063 -1.5200352404252655 -0.1363737852073138
C -2.738291755830834 -2.3707404496028093 -0.35475783387268994
C -3.7694074657192806 -3.3801744840486165 -0.6171630688414275
H 4.2952911742596465 3.963680417942198 -1.593721038140921
H 4.566129291888316 2.8332885567452455 0.49452187562766886
H 2.584555624862673 0.5345993647507681 -1.5125142636382
H 0.22486560952142542 -2.4751924930848817 1.8214770154158115
H 1.061655050563832 -2.948004583175459 0.33086468098012783
H 1.9050307484596745 -1.9554000707454815 1.5583191480562721
H -2.4685902812108753 3.6461257653162766 1.224496730630078
H -1.0544847180635508 3.9570687055409355 0.07211551044545064
H -3.3104110346823434 -4.356316359118001 -0.928300350618461
H -4.363487415719474 -3.604340695918122 0.29839577843848647
H -4.391534227256995 -3.025176815120329 -1.4562417980927294
