12

C -2.724068892098099 0.6573180865283538 0.2855685393911788
C -1.8122324386007058 -0.27677674350832576 0.4710799506377651
C -0.41764551479374434 0.046465216707954365 0.3145157254605619
C 0.5619772911278452 -0.8206917002655013 0.47953636879333345
C 1.9526608885534658 -0.4442609094897731 0.309815781643416
C 2.364571313496744 0.7546951682015807 -0.013738249221677242
H -2.4365673662898106 1.6813243960840052 0.012671123265735421
H -2.183960396277401 -1.2612782641402231 0.7385971956976175
H -0.14535827700460588 1.0574004722240404 0.045712564528038395
H 0.29864752764095426 -1.8274100503954838 0.7467730722774664
H 2.7500621932990432 -1.1919670072234885 0.4546477981465116
H 1.791913670946411 1.6251813352768771 -0.20156162348000248
