29

C 4.95569573116762 1.4627421644340977 -0.19039865795557046
C 4.956631196430117 0.16540063019120785 0.1196351390044703
C 4.133078318069133 -0.27370233570555197 1.198295220861686
C 2.837945973704271 -0.05394761069531195 1.0629615509561767
C 1.5576088515226325 0.12536876593956095 0.7860600690557519
C 0.913038907358144 -0.9541352700098131 0.07487385888089108
C -0.42385955957483545 -0.7161650753779413 -0.42794786460523826
C -0.886998059696005 -1.6824903501660324 -1.177928253704794
C -1.3711702468214158 -2.617957587007547 -1.985220701895621
C -1.314563528723408 0.40811874513076807 -0.23285338256763846
C -1.3199831117163368 1.038580515209267 1.0647008687936463
C -1.786749259128244 0.34508324872764395 2.0734368792326245
C -2.2735644988620543 -0.4365655449894645 3.018431718291449
C -2.5710309158949918 0.3364268097754876 -0.9447275989855012
C -2.7840086205835335 1.2131868847677374 -1.8903699385622033
C -2.8963485957509865 2.1391512968458777 -2.81892848312255
H 4.367354750722961 2.1923013461540832 0.32998562960336075
H 5.601580067753855 -0.45985024674008534 -0.4926418402436131
H 4.373939022544833 -0.7542287423066577 2.1052059742072284
H 1.194154150431503 1.0539418738168724 1.1352551100651544
H 0.9094953371858122 -1.8690140276746738 0.7244018358594991
H -1.9012713764124203 -3.3648938058566893 -1.4677290319647733
H -1.1569211373578276 -2.476551805099579 -3.005710459140821
H -0.9897782006485482 2.0244966361032493 1.3487701256435687
H -1.5529445154167139 -1.0397103839564419 3.5021726012540424
H -3.319518788090705 -0.35047928888055735 3.159312591099458
H -3.385425529149909 -0.3498469894098301 -0.8123483498527506
H -3.3307352225509153 3.0427947934290263 -2.4868125257677303
H -2.5356511405115802 1.8519453533514334 -3.7698820844403937
