14

C -2.4778291747928143 1.1523989823759024 -0.2525841547171929
C -1.3897514295199689 0.5550622872891406 0.14077339427625268
C -1.146184652366335 -0.8420040146745349 -0.18012914995237647
C -0.04483747890803122 -1.4426652454984912 0.21929701386442063
C 0.9230860932082702 -0.7032850771178286 0.9805574996162814
C 1.5878300135977221 0.22324667508882734 0.33049691616088767
C 2.2035464877768396 1.1203465674870197 -0.38738126908833026
H -3.239431039206338 0.6168490340531615 -0.8366201950766385
H -0.6744207121294685 1.132673624622217 0.7134793084423766
H -1.8657982741591703 -1.3932647613324514 -0.7466017428046612
H 0.09982417812078957 -2.497550804257186 -0.04417202061279411
H 1.1888601044489888 -0.7897640291144393 2.0004268887047933
H 3.093351975579348 0.786912733356289 -0.8686891685993156
H 1.7417539083501778 2.0810440277223217 -0.40770797522147045
