25

C -4.275167547895127 0.6598081123890704 0.5809110056667152
C -3.1074856843588567 1.0199613594481776 0.1618957310105792
C -1.9550891390358063 0.2277896481774391 -0.12490672615692457
C -1.875101886020585 -1.1129397412408988 -0.004556734949922864
C -2.3757414009525033 -2.220820513428298 0.27790081056384086
C -1.6903591590530709 -3.5534024562859114 0.20201379597356528
C -0.8192011303114289 0.7608880669753683 -0.5525128636231362
C 0.21859025118910083 1.5206899991399896 -0.6471751556130885
C 0.4752478457564883 1.9266160457868922 -1.9824532528473549
C 1.0577830593053354 1.959943999807375 0.40886649259509766
C 2.103586406959122 1.1938849386468424 0.6974377502569779
C 3.321541153260102 0.7608015234994706 0.7698716198569279
C 4.355122610347206 0.011991021402385957 1.0219498095921105
C 5.270090930242585 -0.9422768137998917 1.019892392368742
H -4.563204586364501 -0.3302895605232843 0.7838051265248862
H -3.0115384146915334 2.1240914832315942 0.005685427730430266
H -3.4134361519439427 -2.314141473022679 0.6219481995368353
H -1.3422279899848522 -3.84332389051381 1.189819170151
H -2.2837439166996187 -4.292853076493618 -0.3372685247939872
H 0.2325180155852184 1.199554251180319 -2.784603973946817
H 1.540760560453045 2.185825385053259 -2.1154957449169642
H -0.09032589750626953 2.8841119627098686 -2.198072366217439
H 0.8959300694771538 2.8683854163585334 0.9821052489611369
H 6.042511103754651 -0.9687116990786843 0.26083751646062686
H 5.2889408984875725 -1.7255839894193863 1.7621052458163318
