27

C 4.172822773159573 -1.4190359503060739 1.066668143923033
C 3.4223325387495964 -1.6467589953298432 0.026278363754435544
C 2.6498649124906777 -1.6218226309712742 -1.0519104042197929
C 1.2500601591021507 -1.2205656694342117 -0.9284226649094123
C 0.9800921435152294 -0.3084263600927469 0.23022268152943762
C -0.4656220545016567 0.03871111079330608 0.2662809137017285
C -0.9868881500576041 1.2743286549583366 0.17559532452946683
C -0.22068247393746254 2.4993262873774778 0.024907553500824294
C -0.8704492676950712 3.6420668534541676 -0.05100140108303855
C -2.4577163666303967 1.1974599305833606 0.2524912677121989
C -2.788873236949555 -0.2600337924192458 -0.08649971110243214
C -1.5556235657219104 -0.9223174219221568 0.408624040292221
C -1.4301069187396322 -2.1398007216838137 0.8906571613159842
H 4.506691651925805 -0.39779507290735105 1.236708727131078
H 3.144207344615404 -1.9090466359736502 -1.950132255266875
H 0.621567284069662 -2.1248732782921897 -0.8430861483060896
H 0.9471662787248177 -0.7126663276890942 -1.8639943271663657
H 1.6215131251918167 0.5719164276001204 0.24988481147547267
H 1.1875064939154145 -0.9092237983505829 1.1620764679719622
H 0.8660585386898857 2.4441219561884115 -0.021468589502308812
H -1.9324984254130213 3.70699441332682 -0.006735038686674245
H -0.2929392128408304 4.54642490104428 -0.1628236878444969
H -2.967753667144486 1.8881340906569455 -0.4522931298509171
H -3.6946250412977113 -0.5720616912394992 0.44313493262737824
H -2.87759169711104 -0.3412071019144795 -1.1873306330545654
H -2.315637703606207 -2.7549902672461086 0.9441501839155592
H -0.5128754625030544 -2.5488589102110994 1.2280174176117782
