19

C 2.0008063119024815 1.12459225079278 1.6844045119750577
C 1.9486998569902865 0.319718346654284 0.5970828820243874
C 1.5633686942863811 -1.0775157811660865 0.7228723101856793
C 0.266557660042752 -1.5304718329269251 0.28628674012122185
C -0.778172252951832 -1.0148193982408424 -0.24184488924958328
C -1.2597994226390181 0.23308822424381814 -0.6874229181824059
C -2.5090274463489735 0.28246194929408497 -1.206749226771302
C -0.5611947726914855 1.5107596026827073 -0.6555104730716838
H 1.7570248416740217 0.7465324794995306 2.6710235198457197
H 2.22003638473654 0.7463015541385061 -0.35809848559060015
H 2.3519947209380097 -1.6905829868474653 0.14799070954192772
H 1.7901892590854032 -1.4291628981067905 1.7927431934703872
H 0.18995565631374223 -2.6891622786671165 0.48729605642218743
H -1.6047256395723675 -1.8390945604346949 -0.4131357435635529
H -3.0587048732216733 -0.6452932304940946 -1.2456869696174777
H -2.943582754028756 1.190363017237483 -1.5652755788775308
H -0.39284312341437316 1.8595528427788224 0.3848564926573477
H 0.31480952084281594 1.596649950971268 -1.3291250808304893
H -1.2953926219436818 2.3060827485898354 -1.0717070504888218
