27

C -5.212398653996691 -2.0536433972130705 0.29371809357811
C -4.430006171250628 -1.3324676634833128 -0.4875153569289379
C -3.3708714582076857 -0.5047500512703625 0.06258687077527775
C -2.6151001193053705 0.20049308450900405 -0.7851671651746456
C -1.5158159159414943 1.0672075890921033 -0.2966133516344625
C -1.7989515923144794 1.6119528771616405 1.0861700250486157
C -0.2794985812321305 0.25746051745171367 -0.22023658963468126
C 0.880363359296782 0.7304753251149757 -0.6394996902443074
C 2.086542870147459 -0.09498674935691012 -0.5508646193953246
C 3.315270685599094 0.6481838451372802 -0.9317153717819258
C 4.467656049364397 0.18524745299809844 -0.531384346944277
C 4.547924964041544 -1.041410199693373 0.2765388192589975
H -5.062686865655809 -2.0268232845568988 1.3474450226436938
H -4.611926142202395 -1.3850878708053378 -1.5511105065128024
H -3.2018409189861847 -0.46359718976862324 1.134691142881932
H -2.7818149476923213 0.15997936836573598 -1.8432621251769332
H -2.868643168829168 1.5406312088672542 1.3661125438913968
H -1.1298397140959375 1.1352997805133425 1.8576959812760445
H -1.4906241852160773 2.691201364278064 1.0892244781862996
H -0.3411239130290056 -0.7419339455767305 0.190026416702877
H 0.9306290570565355 1.7271034120595654 -1.0464108562395522
H 2.2487684936521397 -0.5198781025185263 0.4511407375632812
H 3.2727509003157813 1.567925452498675 -1.53599671101651
H 5.373109502018969 0.6961312930757361 -0.7880612190486102
H 3.9052587895880633 -1.8441731299982176 -0.1556949321468655
H 5.587090310793526 -1.3966361661512028 0.4276840130875632
H 4.095777366081363 -0.813904820730503 1.2843630453897183
