27

C 5.085313329796183 0.33352392775085693 0.08799523686231345
C 3.9744991441750828 -0.18508139979148147 -0.4090533069104369
C 2.779082165237239 -0.36244622445276403 -0.9238734729091364
C 1.636731371025721 -0.4021329243169191 0.016110380095282237
C 0.31262781498045505 -0.28713372808272325 -0.6563799064823997
C -0.7555406421994444 -0.34385564694837967 0.43683426532247205
C -0.5980517213094821 0.7782416622108919 1.4192405622450235
C -0.10030533706339637 1.9322443197281576 1.0500177009483909
C -0.7613572707525027 -1.6899112560758942 1.0329725045791918
C -2.1089313427257697 -1.8013359755650702 0.5149258872592644
C -2.091718376541393 -0.625081249622375 -0.0030899217911674287
C -3.0908304145470105 0.13265191129364887 -0.7638952232197397
C -2.9071719433525662 1.3473467369314798 -1.2337675512575825
H 5.193465260968945 1.4218486593332658 0.13225499050784523
H 2.6897656849351823 -0.46732523378515495 -1.9872673138513923
H 1.6974743028213692 -1.3545011662853523 0.6078706544252491
H 1.7578581152832256 0.39827114746430925 0.7621356218455855
H 0.19256235816109155 -1.154479086710501 -1.3539861597799057
H 0.2615193244301982 0.6687380806598501 -1.2123736285047113
H -0.020577213849574193 2.7011787792655366 1.8391680927180007
H 0.24094496632956117 2.2328046933896575 0.0836254688541385
H -0.7833736100435752 -1.6767172026263126 2.1524721497080774
H -0.024039948947009962 -2.427258700860725 0.624626796077285
H -2.874668601524573 -2.625051761952124 0.5601201149094929
H -4.05897754206766 -0.30984531841783514 -0.9711816384914037
H -3.6621089346821156 1.8815901161963209 -1.7909228311948304
H -1.984190938538255 1.8837168412696845 -1.09278122605642
