16

C 3.36526624395194 -0.26654517896528573 0.9027233916883548
C 2.448104901426334 -0.1923230004047689 -0.06906325494105561
C 1.3681242983245752 -1.2173927431903624 -0.17167567006915
C 0.15530768608469056 -0.573612119704168 -0.7532467502675745
C -0.4691876433865009 0.2854524970473233 0.04546930325575796
C -1.6901497798443132 0.9770193531372314 -0.4495170918877535
C -2.9374177842356857 0.345901994345425 0.0775210335542779
H 4.130702517160875 0.4978333085284611 0.940004116339836
H 2.466033948853681 0.6108126263833702 -0.8034678630047657
H 1.0530392057734492 -1.5864098989877828 0.84348230965096
H 1.6838159002236726 -2.08781086470514 -0.7827360275197139
H -0.1561315308589705 0.5316475555430177 1.0539498822726858
H -1.6393392311264174 2.069747347543524 -0.30461079064557767
H -2.735825043034477 -0.15087135534575188 1.0394935102251144
H -3.37653537255488 -0.4055222466445146 -0.6049933557130155
H -3.66580831675796 1.162072725419406 0.28872837194286166
