19

C -3.203689249166914 -1.9133369414155814 1.4422978203917798
C -1.9993830974861269 -1.5154238088304919 1.0643288044709724
C -0.8879621107198918 -2.4435941585058436 1.0285886232483266
C 0.295261796459745 -2.0088361854872523 0.6461530737442909
C 0.599765517042997 -0.6175791905426637 0.23744555825086566
C -0.5467907666957427 0.2868174989474237 0.2885664321309669
C -0.3817272947921619 1.6665268567465252 -0.08110744008074341
C 0.6716486573004344 2.2952269245828827 -0.4770986325593551
C 1.9384379613450933 1.5992466090688033 -0.6042365991530404
C 3.05282031804315 2.178411765872961 -1.0024463422990375
C -1.7338506653724561 -0.13560446554842598 0.668719606707606
H -4.024721958521579 -1.2161409634149059 1.4659076919404521
H -1.056123455879264 -3.4819341362560166 1.3192808325241436
H 1.1047641051373702 -2.7162997673544176 0.6282169298383254
H 1.024442417915411 -0.6508906397104122 -0.7945712225614358
H 0.648185313750065 3.3452420510205276 -0.7240822056882104
H 3.1440759593491365 3.217669575179644 -1.2734536000389676
H 3.94225757541311 1.5713548449868444 -1.0632560313573505
H -2.58741102276784 0.5391441305254449 0.705628505803775
