11

C 2.652723655856816 1.205888761476603 0.1591512428843985
C 1.864478659390981 0.15882176182466443 0.2168392746105621
C 0.9715355675720028 -0.790052584413466 0.42427133267398465
C -0.042135375351481916 -0.9509239915155108 -0.5852612469093161
C -1.1753952630644064 -0.34436101116546947 -0.382032794542084
C -2.2696468047197795 0.32569915966723656 -0.11248009858498098
H 2.2096048672409947 2.1531422344807147 0.47706370982248375
H 1.0733882758550248 -1.3536810679654088 1.315126171115153
H 0.012024228322745868 -1.5034757137292567 -1.481748748175879
H -2.3050335006282854 1.3240845225720834 -0.47842091525407376
H -2.9915443104746355 -0.22514207123218172 0.44749207235974714
