19

C 3.757519635064499 -2.2630580602204002 -0.2242960468968376
C 2.477029647239462 -2.0662343630516364 0.015116404285713977
C 2.101084958061182 -1.0696553410732654 1.006323780323737
C 0.972968109157227 -0.4193476290504056 0.8064323860930432
C -0.1792446107792251 0.06976570253608923 0.3590198503455235
C -0.08167262691988436 1.1925357144781488 -0.5108587317317497
C -0.060664676539829133 2.3804134713482146 0.05999806631233903
C -0.045895650840806865 3.5220534098967207 0.7191137224858265
C -1.3533403231826782 -0.6063109723839233 0.81407191171654
C -2.25521845349793 -0.8944021904967644 -0.08342073057510402
C -3.107096564435446 -1.1442315151341353 -1.0546686857530436
H 4.502309288813509 -1.697038652002918 0.3039899254232702
H 1.7699445608735063 -2.6623883151859213 -0.5440949164043174
H -0.021723861617822998 1.2309963991556256 -1.566911061790056
H -1.0030451637899207 3.9412612377683995 0.8836639547856778
H 0.9189613353906807 3.856148439213467 0.9901856367646882
H -1.6067234404092465 -0.9166344001417008 1.7990141542972637
H -2.9651902953271203 -2.075151391098294 -1.5374317563258684
H -3.820001867259831 -0.37872154455721646 -1.222796418592548
