15

C 2.7300391668730164 -1.6258260029453682 -1.9799349949724403
C 2.510250614249465 -1.182162605098765 -0.7555332278851055
C 1.265864131956668 -0.5240342496580567 -0.49008105550478054
C 0.23682904349929396 0.018281210385768618 -0.26230950728736385
C -1.0299898434336485 0.6886697296686812 0.044266809825222464
C -0.8136090858826948 1.9327540593512185 0.863576582760055
C -1.8609835526966243 -0.26379569720530377 0.8774613608492908
H 3.6729353670792477 -2.1403573403035607 -2.2355421757917933
H 3.262687021004633 -1.3263889355361231 -0.003147414338359537
H -1.5530714551820615 0.9708008408884834 -0.8775856395097834
H -1.38620268985445 1.9856325063600815 1.7857034820454178
H -0.7212076509105357 2.8374331276559954 0.27055573748819833
H -1.7865645386331377 0.010390154511570285 1.9414223321552955
H -1.5951129314810053 -1.3212628395183486 0.6795951570147656
H -2.931863596774221 -0.06013395649994436 0.5819253585770326
