31

C -5.877500214538986 0.9949878327359768 0.2703013757164644
C -4.592447875573193 0.715480630448775 0.1781172692759456
C -3.9254036127509533 0.7856434593510796 -1.1100181166634882
C -2.635857218561004 0.5117496324130225 -1.2405805722833538
C -1.877989258768693 0.12780386189062068 -0.03251532706976437
C -0.6484079510994345 -0.6157308781921077 -0.32338323274590475
C 0.4115184674935017 0.021847391343707393 -0.7239319673979357
C 1.5575971542662093 0.6935090387775841 -0.7855087765310262
C 2.211027142370406 1.0203114310482289 0.4421959900447387
C 2.647154338120998 2.256242100159703 0.5508765551533764
C 3.143522027557139 3.4777468760275023 0.5152078517712343
C 4.48283823004884 3.6100215944806777 -0.04025432972279265
C -0.5938280988895185 -2.0448189571024566 -0.16421034219351943
C 0.16006620632484855 -2.611281445847865 0.7331521168208263
C 0.1848301085723844 -4.083942268067298 0.8613207639348415
C 1.4757832455842899 -4.749185903277504 0.8850296108955641
C 0.6294270409614224 -4.943445088448025 -0.20570450129974283
H -6.454971288508817 1.277891109072759 -0.5946335352616996
H -4.003491386361855 0.4309977730150548 1.037032264030969
H -4.493440103472371 1.069422410140993 -1.9925032421796982
H -2.1443855082402403 0.5649995669071275 -2.1985927110224592
H -1.7149565956413952 1.014591193730483 0.631060320766004
H 2.412818788136045 0.436833498102237 1.295943514124586
H 2.481591132391671 4.201465048631398 0.9029070325937496
H 5.219272345119491 3.3191679851868976 0.7644805320942143
H 4.663107288725831 2.975077256661885 -0.943246195993732
H 4.762552876116499 4.639986929610133 -0.32995883032584267
H -1.210333359693849 -2.6419239808197323 -0.8260827057645366
H 0.7654127321326291 -1.9980636323488512 1.3812023505393745
H 2.4397132506903896 -5.009994147099866 1.3051286808499658
H 0.524780097488164 -5.447390318532746 -1.1591168120863145
