20

C 1.0160021050319425 -2.2757514747533145 0.17965222777395393
C 0.5954993024009211 -1.048450983394398 -0.08038973292093639
C 1.5982324683798805 0.0019955906636172434 -0.0572706700863808
C 2.871299101727677 -0.21268346300824637 0.2044661655768162
C 3.8650618274658335 0.8885603822973391 0.21833261818668906
C -0.8149183856664222 -0.829860417260783 -0.3674591694678634
C -1.5010741482200078 0.11002591271971304 0.5928464931852244
C -2.9215386854981356 0.2204365281172079 0.15976749408118074
C -3.6610344032371698 1.2379088117312207 0.5761288935074677
H 0.3522056997903607 -3.111653287283778 0.18543998572130627
H 1.2936200503094673 1.0144013955209918 -0.2641482875256655
H 3.375532622253864 1.8804710473519033 0.10189991032784367
H 4.3798287180291275 0.9042058731862181 1.22206989207708
H 4.660528804244827 0.728561882267649 -0.5663232624207885
H -1.3768285500776989 -1.7636818258126827 -0.379293199557109
H -0.9203068859732111 -0.36157849986779605 -1.3843311956075859
H -1.4735273754156855 -0.26544400817442315 1.6395018955775282
H -3.407286130660467 -0.497163389156227 -0.493342571042537
H -4.69311847010254 1.3783547944331602 0.3017234455561781
H -3.2381776647825498 2.0013451304225898 1.2374614336145926
