23

C -4.451565117561687 -1.0955834869970944 -0.6473715534071521
C -3.86747776455614 -0.09854849762569239 -0.017640797220957675
C -4.010609092729902 1.3138768077689413 -0.4487330093119557
C -3.0404693439766413 -0.3824996831010353 1.1572767690506678
C -1.756222378928689 -0.6438077155176309 0.9482945310368447
C -0.5759708150464276 -0.8554001394893604 0.4486117208075387
C 0.29061372035722416 0.2692083077286092 0.2012804246688946
C 1.5978156017776726 0.10825698563799911 0.22293832386830256
C 2.1669342600077215 -1.2308930644345188 0.5020855465649129
C 3.571370829593385 -1.1847632141093039 0.8833637122331145
C 4.274143632776859 -0.17315119308780985 0.40827442481353443
C 4.886929931250732 0.8695144082347805 -0.09754483394952755
H -5.05628033326025 -0.8720660068260193 -1.509125837316884
H -3.0860298480482657 1.6091907854987777 -0.9947258717749288
H -4.832288765555469 1.3438437242222832 -1.2203799324654538
H -4.283515384877678 1.9877119497661107 0.3657776784229708
H -0.2589716640719087 -1.8474368324369574 0.22277513375113311
H -0.14851351456224915 1.2521937422897014 -0.003411287784516574
H 2.23273388231503 0.9560568695779269 0.036658119809313085
H 2.0260093226822504 -1.91926811414089 -0.3500673677048084
H 4.131905707852602 -1.8410479316862653 1.4900174351392386
H 4.866115128606755 1.737132975866129 0.5034643538878739
H 5.323342005955853 0.6974793228613843 -1.0513081436380267
