15

C 2.6569512419792902 1.2204540004865685 0.09497809451128013
C 1.8790508947337776 0.3057964025348115 -0.46716452849299034
C 1.3017205432842411 -0.8198750989590284 -0.7813495415880592
C 0.13786875656842346 -1.2647224247960795 -0.011532145607755194
C -0.7963314382673997 -0.17446136312054064 0.32632402683350836
C -0.9356606602281717 0.20675416768762497 1.5780081876229484
C -1.58288169192473 0.49956510194721754 -0.7292816648073475
H 3.3913884221134296 0.9075398667066686 0.8545937460406703
H 1.6654921619295682 -1.4256243581470232 -1.5914421306341886
H -0.3449851345966607 -2.161722297712116 -0.3973027545485453
H -0.34636939194423483 -0.30339106963475115 2.3407364048220565
H -1.6279947612608705 1.020798655279203 1.8617189629216546
H -0.9268182674827284 1.0147755866680273 -1.4848623690815155
H -2.265716551093367 1.2638186844185186 -0.350990555639807
H -2.205714123810579 -0.28970585335914373 -1.2424337323518682
