17

C 2.480868993693908 2.0989440552805037 1.127995715431158
C 2.353103146541751 1.4679343290731806 -0.028579058353579483
C 1.162575343460196 1.6085165926613647 -0.902836365195287
C 0.3348394535888899 0.3987092411172941 -0.8928142395828792
C 0.25922815259748644 -0.370109068830953 0.17483707491255615
C -0.5740343342438516 -1.5766527513623556 0.16657153854186166
C -1.8664706638551776 -1.3377539173074278 -0.5462767929306627
C -2.991048079871984 -1.3746159866084493 0.13569891770349002
H 3.343519332281633 1.9996686273612438 1.7657498047170035
H 3.1475191408602394 0.8159848483989733 -0.3633554947776124
H 0.593077092254475 2.5350140061842374 -0.7019308986563145
H -0.2229460666870022 0.13327678312353738 -1.7770172774423876
H 0.8150913200585012 -0.10508795856398677 1.054986985658311
H -0.03561167878823875 -2.3751591425619383 -0.39712350406708347
H -1.8879882696745307 -1.1369771554471855 -1.6053976456808292
H -2.987392809831782 -1.574207814047911 1.196145297072731
H -3.9243300723847594 -1.207484688470366 -0.3503217634004204
