12

C -0.9327806045233505 -1.4844995397318348 0.35999766763652497
C -0.6441366569454716 -0.37216320037882183 -0.2852958584780877
C -1.6835431034184218 0.633726937602003 -0.5643746029681832
C 0.7416049411681835 -0.10287676786623422 -0.7495927439727511
C 1.6398571932085486 0.4061851749667659 0.3293067474267166
H -1.9345601326947528 -1.6587130347817207 0.6850226649437756
H -2.6612392967645913 0.4148781878755871 -0.12661494063158685
H -1.3593774931100155 1.6362497337926796 -0.20291193609888714
H 1.125188353012467 -1.0629981312772756 -1.169303608945037
H 1.1645769376571444 0.3531976062325888 1.3172751610290376
H 1.9528678260752497 1.4387085508333743 0.06840415413278327
H 2.5915420363350052 -0.20169551726711987 0.3380872959257125
