8

C 2.066408275186789 -0.032133407505229514 -0.5440986905812777
C 0.8462704900408288 -0.39500799759799776 -0.19768372886218527
C -0.34863187811629587 -0.613569511913064 0.294225822066884
C -1.4421162247416828 0.3063042641032179 0.021346837829703168
H 2.5438029607866643 0.6719753756939703 0.13197752170772817
H -0.4724746142673678 -1.4923700873813963 0.8998668617197058
H -1.9118082406500547 0.2129848228821218 -0.9656892783713295
H -1.2814507682388852 1.3418165417183814 0.36005465449077445
