19

C -0.0852237409688021 3.4105263263083696 0.2644258783905057
C 0.012618171258297695 2.098639082478959 0.13038645390076375
C 0.32224948864932873 0.9043519954859824 -0.35254912383913484
C 1.5613348525271773 0.2933248974377455 0.02598721561461019
C 2.6083130913045856 -0.20994299491458834 0.3588683874836295
C 3.891106370652286 -0.8073577974379448 0.7737510675397606
C -0.5973288439729458 0.27547176216643277 -1.237427974803234
C -1.379250860308429 -0.6394902228357942 -0.6979577740950308
C -2.1754100691194536 -1.4649704757052173 -0.05246905578675979
C -3.381669194015273 -0.8735765553609623 0.5075288972452656
H 0.38158913809899375 4.0650417941153 -0.44607800542120996
H 3.706561207773465 -1.3505702276705414 1.7242652934422968
H 4.236216153116254 -1.542061954588485 0.03434389595694501
H 4.671983007514885 -0.04648030743496569 0.8881096725046307
H -0.7740530140794769 0.4088050120639756 -2.2653336765033503
H -1.8208536760572187 -2.459510479158807 -0.029284991751197996
H -4.126238051760675 -1.6231965029726019 0.8453600997855734
H -3.1622704026238546 -0.14121056199362467 1.2929333103027163
H -3.8896736279892004 -0.297792789983191 -0.31923070020449057
