48

C 5.7612784680588645 -2.6017224076519514 0.9557057040117694
C 6.519126342971305 -2.816541599116746 -0.09177471877988452
C 6.6606025762852985 -1.7903931998828724 -1.1094709870857344
C 6.039606014052106 -0.6302204160607409 -1.0099908584453623
C 5.182135529537525 -0.23534533851822118 0.0581229393610499
C 5.491224450926287 0.45479480453776305 1.3034271289757962
C 3.923891133870712 -0.5293400706361165 -0.09204947562564411
C 2.630873670198359 -0.7092299898674077 -0.3297733668878699
C 1.952419560880611 0.38012359250602645 -1.004313193352711
C 2.6149516302943256 1.6564324608694132 -0.8692692665499488
C 1.7983590976228905 2.554484898044814 -0.3819063473450876
C 0.5106000865880894 1.9260252302784013 -0.1543131730047518
C 0.572156069016256 0.5991519526173718 -0.5241971913829652
C -0.5226127920467188 -0.2753034150753264 -0.4207070780375988
C -1.7192055229255674 0.1980523768939458 0.07052233478510121
C -1.7796046904831926 1.4940340960718503 0.43187610769742585
C -3.003992692552125 1.8146284637717 0.8911821792938796
C -3.191264156890481 3.133643890559614 1.297441625852969
C -2.129664406016778 4.043509962162875 1.2134723873269364
C -0.8755179619776268 3.6739958814506632 0.7321162370987995
C -0.7311450858592932 2.356111011014537 0.3392772163421061
C -3.8209581983783623 0.6002191117891408 0.8196646266792336
C -3.071330431152078 -0.3762668433670473 0.3322392485059952
C -3.368163778124361 -1.7638665653247063 0.06205988367335443
C -4.461923951978202 -2.4194131847951574 0.23374568287711517
C -5.782276001898522 -2.1168446293539076 0.7293399853840957
C -6.854911021680037 -2.35900416389428 -0.3587940794085957
H 5.5979290764109395 -3.2924625251899995 1.749788049575805
H 7.051349636091995 -3.7425391090882147 -0.2297134816799933
H 6.205155959758744 0.08431832601334067 -1.8259540274091772
H 4.951878322264304 -0.029297365171070774 2.1420263450303905
H 5.260960412735251 1.5331377869174847 1.2087641063166616
H 6.588100722865284 0.34881715699784366 1.500849473643578
H 2.2977099822107467 -1.640374470257144 0.020057021759531925
H 3.6510097038686116 1.8849481439778328 -1.1256928165034576
H 1.9862375854089924 3.6125016977434727 -0.15944317767881644
H -0.453489048067205 -1.301898639787469 -0.7134629256453955
H -4.158945529752042 3.417966137790239 1.6686421134793232
H -2.275397428516222 5.074049900313373 1.5306989648978897
H -0.0549905251381216 4.359693507909502 0.662568074024675
H -4.835080070446127 0.5914427253648314 1.1231292251147627
H -2.5011225670984087 -2.35076542230743 -0.3642627290475248
H -4.359745205275904 -3.521579376763404 -0.08902095264598411
H -6.039761123003393 -2.9127989686228073 1.509141234306673
H -5.968063113856665 -1.171424227776989 1.1967545378025353
H -6.929323689560279 -3.4474416378373847 -0.5762048186694815
H -7.829146752110225 -1.9752472608800111 0.004490844698311506
H -6.529920287131854 -1.7827622883681895 -1.248455254685325
