14

C 1.4045931818199722 -2.1727879896060998 -1.1379288059373989
C 0.45505996352473 -1.2903831139165083 -0.8624163188605334
C -0.25812108651426213 -0.3504880218797148 -0.28639545115121035
C -1.272790235545478 -0.7378114965449449 0.7122486774068187
C 0.007426430521876327 1.0422472093598552 -0.6772381252833091
C 0.44698650767756853 1.8980922375791078 0.4758142336688747
H 2.240141365412245 -2.281627259128071 -0.45466879301183577
H -0.905248319012341 -0.5601420315165788 1.7653739304421916
H -2.181236177180464 -0.09923702812278765 0.6249055034982198
H -1.5066454343432072 -1.8131914651348833 0.6115633523606092
H -0.9373458578876964 1.494736358301249 -1.0933506032726021
H 0.7591758260543566 1.1098315508268 -1.4879809849311236
H 1.457724241646468 2.3287597353326475 0.35015802474194196
H 0.2902795938261746 1.4320013144499435 1.4599153603292643
