26

C 4.322219157177245 -0.5674880340547035 -0.7119939731458594
C 3.4033253375812254 0.47016452903784073 -0.11945870831626984
C 2.2920304462679657 -0.2678017654797505 0.6421471026983746
C 1.529794597762363 -1.1410813532247053 -0.24459664381013743
C 0.26621594783187424 -0.7219839181511343 -0.29278458349198394
C -0.9049799821964115 -1.2409765835382143 -1.0285945462737658
C -2.0497757020592524 -0.6103903997130217 -0.8811662255235619
C -2.269341891070284 0.575405879655169 -0.04185528722986065
C -3.471011363588907 0.44385737653317087 0.8291567269168957
C -4.604096897225027 0.10241463679023094 0.23805840618742782
C -1.100669738883868 1.0675291440114736 0.6727536595833499
C 0.06614266442761381 0.4454994273255054 0.5382401287643723
C 1.3787924250693404 0.7913426058591886 1.1832698608981163
H 5.13409121384289 -0.749023814624619 0.029246147255737667
H 2.954767674234278 1.1233723820925592 -0.8899517494045198
H 3.981267783265256 1.1182785124356254 0.5605031214281219
H 2.7583945942078154 -0.8050678844912085 1.4985555814641622
H 1.9203467186988465 -1.984383642099516 -0.7733283861688706
H -0.8005167805598294 -2.101775456440552 -1.653841525913378
H -2.952958619605814 -0.9659285907578783 -1.4145564871314396
H -3.4611054991176924 0.6093634790958867 1.8901522826544845
H -4.7005643474292 -0.0823453970682671 -0.8237287099589128
H -5.500332605677417 -0.004001789934065763 0.8337056899537229
H -1.1402828110790764 1.9526111073836994 1.3353500133629717
H 1.6395805743256135 1.8138460739788937 0.8522605534594129
H 1.308667103800467 0.7285634753783401 2.291859450832744
