13

C -1.2166627325008839 1.3082949708188378 -0.8635129643814567
C -0.7875311637562931 0.13255921205805105 -0.3830228347226798
C -1.616999894844122 -0.4860865535347805 0.6992817142872937
C 0.39447793403044124 -0.4279992505738697 -0.922183082057365
C 1.474735712583088 -0.2280685011712352 -0.22698461594519745
C 2.6230820170640192 0.1720761208654651 0.22161284000776202
H -2.0950744419181535 1.8032356382885057 -0.5173194212642226
H -2.1085759186141697 0.30321782993721147 1.2782787888253635
H -2.3358240273601414 -1.2070352392580685 0.2773618279997094
H -0.889134397568341 -0.980875760694781 1.393513813829271
H 0.37970017074949824 -0.9689941655955164 -1.8317926216150604
H 3.1445618909633657 1.0331222326046037 -0.08395912220475206
H 3.033244851171652 -0.4534465337443562 0.9587256772413025
