32

C 5.3498310182861815 2.496655943504865 -0.8041881012378406
C 4.285308335738056 1.7253893139748244 -0.5699705773518516
C 3.01695198310433 2.319274232099401 -0.2730293973116376
C 1.9302477977358838 1.6284345880985638 -0.032788780092619575
C 1.8920317204915975 0.1913908605918254 -0.04103371632701907
C 0.7896479133998738 -0.49829927313784483 0.20280238352075425
C -0.4711268475725177 0.12690806752086994 0.4983925370474019
C -1.540962856473813 -0.6256362975546371 0.7340326807446511
C -2.8816048570226456 -0.07279563349066599 1.0470245210419191
C -3.819777477444107 -0.582688583883394 -0.05294718018540835
C -5.185590963247049 -0.08079086890265813 0.1757278737992831
C -5.487485759462849 1.1651523610250314 -0.1551244565202292
C 0.8157602507551529 -1.9964064894808418 0.17902790545085961
C 2.1872792966130454 -2.5306174739383773 -0.14108849541436072
H 6.290672121704957 2.04696876910533 -1.024561164630812
H 4.417192830913908 0.6727881197302088 -0.612554128707151
H 2.9160993877632446 3.421379174719749 -0.23695731125796676
H 0.9869499871057733 2.180378782733319 0.18935606161381963
H 2.8275931279999105 -0.33863258303404803 -0.2610817967236394
H -0.6398832120357901 1.1835581146320509 0.5494737830407335
H -1.4792696412301003 -1.7229334157016993 0.7069415483691162
H -3.239866787469453 -0.34413542906472155 2.0500687594805576
H -2.7972220817051623 1.0379487348340486 0.9021330513510318
H -3.3974300710593646 -0.2312867881547999 -1.012832565810722
H -3.791814059886769 -1.706535367527723 -0.035360823870906694
H -4.705367273173982 1.7784769569583898 -0.588745681217462
H -6.4960863494527175 1.548809327734015 0.009368121462551629
H 0.08302464040372164 -2.309339101697068 -0.5903220509965995
H 0.531761513975351 -2.374187807832491 1.1811276592841373
H 2.9224760802336975 -2.2908536035074576 0.6521563158280406
H 2.10068282410607 -3.6346989990457437 -0.17223481626524967
H 2.5899774069150565 -2.1836756313106904 -1.0965161478974181
