19

C 4.17112498917595 1.478152496870213 -0.5125753320105616
C 3.082103615360115 0.7701044603297665 -0.6775368964297759
C 1.8467783356626657 0.2904527136760489 -0.7520783090520707
C 1.4218927477053687 -0.547169656394357 0.37599924535781853
C 0.18717128430895358 -1.3506528453759403 0.10574288731403765
C -0.9944788960049974 -0.5457401989506567 -0.21928447573738608
C -2.09264115867807 -0.5867020539852584 0.5074993698299098
C -3.2789688230697136 0.1776069623417078 0.23829061288149114
C -3.4519335989532824 1.0112166719240756 -0.7426988489161245
H 4.1006451971876885 2.400089129696679 0.07583176286871393
H 1.2713912572727313 0.549819812126468 -1.6132461235225768
H 1.2558613585510199 0.07328522201903365 1.2796764053567589
H 2.2444921772609843 -1.275661455166994 0.5742179936578775
H 0.37883116701589453 -2.0758982251719535 -0.7074833786871283
H -0.030312132663993997 -1.9404038080719979 1.0234371337062245
H -0.9585759806774945 0.09701365657308017 -1.0794339177930403
H -2.1308450297540675 -1.2464359338661557 1.391250919789143
H -2.649002211548395 1.173321599169254 -1.4464630803065708
H -4.373534298151343 1.5476014522569692 -0.8770286895668175
