18

C -2.987365261093322 -1.3161899301421287 -1.0834369075388552
C -2.288378724019029 -1.0816370866799463 0.00692892092054469
C -2.322502562010709 0.21891506174236028 0.7410498464305628
C -1.2331563621331079 1.0481049962517424 0.2528442704076601
C -0.030961410469515307 0.6005969654531678 0.507201527648107
C 1.1677538977251751 0.06938499674569643 0.6684556222100612
C 1.605922858580092 -0.7779195220084898 -0.38299897126878985
C 2.8116794708127832 -1.2923071909329813 -0.3341825601746982
C 4.071339175643016 -1.632617285065122 -0.10554979724617275
C -1.2754075368382445 2.257562391114466 -0.4538882116591245
C -1.3333792246152938 3.309682407016223 -1.071675975401205
H -3.6409787767909543 -0.5634127668839852 -1.5196713264110813
H -1.660483853162432 -1.8910194334332198 0.3742627020156019
H -2.136814626532138 -0.02170266452566857 1.8086137295914715
H 1.6090461920844312 0.37006742813448057 1.5711325831386023
H 4.214854419654971 -2.5009801274774626 0.49211319317088315
H 4.815685536584414 -1.0137717670287723 -0.5335873112586212
H -1.3868532134205724 4.217243527713214 -1.6143942393962882
