38

C 3.384763302539055 4.0323516944541025 2.666354393396053
C 3.9123761365247036 3.7149774537813975 1.491519127850351
C 3.4903926292288032 4.285495027514242 0.24929342980869545
C 2.374028089769187 3.8021500031129003 -0.2546646704440132
C 1.307900207852324 3.209764160329576 -0.7133545874971461
C 1.556641796206774 2.016273189466121 -1.5486803214590228
C 1.0225515436232464 2.26003423572859 -2.885834071254096
C 0.047937771042663106 1.4132208377867674 -3.1099235103826577
C -0.15634958670733265 0.5410007706218521 -1.964991102401206
C 0.7579689266559436 0.9038995960816221 -1.0144044324186339
C 0.8162094344888359 0.24416977588617347 0.21750374297283634
C -0.0743248998688671 -0.7748332080070524 0.43329908679760004
C -1.0014950426726164 -1.1518938605532636 -0.5150952619103468
C -1.8941695916615702 -2.1809267426861054 -0.28596433530672427
C -2.810961266745096 -2.527466446231472 -1.2689703668039505
C -2.8400623114838672 -1.8549823141870156 -2.4725886584499315
C -1.9561996715641257 -0.8239009956258515 -2.7204335795541064
C -1.0606180993052632 -0.5068598933117598 -1.7233070932377925
C -1.9377042916228475 -2.9540012626594185 0.9647783682872937
C -0.918739117322073 -2.498984628198724 1.9371638231967978
C -0.8494450043388856 -3.1894782224163354 3.239139094475015
C -1.6704645126132707 -4.180932129218691 3.5267691976335813
C -0.07476316400927198 -1.5210907630008939 1.7121174246951318
H 2.5948283172718525 4.74526991007333 2.787286783405263
H 4.71412735777611 2.972178239494913 1.501115818665584
H 3.9266875439373834 5.039069104491946 -0.3448319423525844
H 0.39373762795047257 3.6478089647178202 -0.43547154857382037
H 1.3949712479837895 3.036718342991764 -3.5774711560442185
H -0.5454744196138928 1.3464709554713032 -4.016480239401337
H 1.5479520422824031 0.5577245335591394 0.9386668374077755
H -3.528506466693205 -3.335033326486951 -1.1182888632668164
H -3.55663562003048 -2.122037793378399 -3.2476598383969306
H -1.9274215868668356 -0.2655229474775384 -3.6287290885064905
H -2.942260529490839 -2.7914925735310008 1.4361607390196356
H -0.125120815383694 -2.898189886057803 3.9848738056705506
H -2.421727833160722 -4.527415151561723 2.829507768358772
H -1.6078385717759847 -4.6744575843904155 4.480122168357789
H 0.6572084277982397 -1.2180064672425825 2.451473057660572
