14

C 2.9832951014074176 1.2110192484212763 1.094862911748145
C 2.4419415449765967 0.45224335983888153 0.180951417583168
C 1.9607458298358067 -0.4673913654968076 -0.6452830618921989
C 0.6350407768507097 -0.9323815679672807 -0.37830404800774314
C -0.3918423210214638 -0.1317427933158498 -0.5595924565546945
C -1.747853487069662 -0.5717751369266951 -0.29840585443843876
C -2.623646821797534 0.23184472324749042 0.22234434279582357
C -3.5498089507552986 1.1403024507944197 0.49264682062044735
H 3.3952182748606052 0.7108026825555871 1.9646433020449687
H 2.61863001501748 -0.7629269887836342 -1.4239410294449486
H 0.4660486553382809 -1.9303885656659028 -0.030433584180450376
H -0.2242039711747041 0.8979336489181505 -0.9179141311752597
H -2.0415029464383037 -1.5711021522910553 -0.5367645059169934
H -3.9220617000299423 1.7235624566713879 -0.3631226853255343
