20

C -2.1063894785897066 3.3978148635384957 0.43007421999737233
C -1.787173098162467 2.0285806145420993 -0.015510047611011105
C -0.5228303455054925 1.6856440597033893 -0.19667643059980178
C -0.22557309452126165 0.3501356508955884 -0.6304585715430571
C 1.043869561137323 0.05431941797974765 -0.7938688218228523
C 2.3330286233020106 -0.2217456324595864 -0.7903299154952778
C 2.8746658544024037 -0.7125061561594684 0.45867785700284464
C -1.1059352076200413 -0.7208166457601178 -0.9127040721351576
C -1.2432082578963095 -1.6588560194419533 -0.01739072967528789
C -1.3087506645054758 -2.5393311308199746 0.9408578618072596
H -3.1640565839669352 3.6601616562134964 0.3219845135735089
H -2.608618695268202 1.3302126132829808 -0.1849689966225126
H 0.22115192292620667 2.416215172804332 -0.012702730286214731
H 2.7640098350521956 -0.03143816486806557 -1.729203237218017
H 3.9873600224508987 -0.5198995730880868 0.45238912894902766
H 2.7084657761277042 -1.7979619981355601 0.578432854822144
H 2.5046430072953147 -0.14390479073237109 1.3506674476174172
H -1.7060085105933334 -0.8851599521997461 -1.7942084894235564
H -2.0523454389096156 -2.357307948846178 1.6735025450156042
H -0.6063052271549777 -3.3341560364491127 0.8714356136477245
