11

C 3.1533437250732383 -0.24525795303905773 0.08139280452800146
C 2.0703511571508004 -0.3005347327440376 -0.6622375636759266
C 0.7841669644931709 -0.488635280648099 -0.9242625819588084
C -0.17534940580929315 0.6341402823545547 -1.02236339703979
C -0.9986020037229203 0.633815432045935 0.21003158799575658
C -2.253931932753322 0.22383492467607083 0.1387593883142107
H 3.1181824499805324 -0.03676666396066178 1.158774473024957
H 0.41044075866863494 -1.4854487837906847 -1.0706251309332049
H -0.5428066237765463 0.9693047870678855 1.124834501401642
H -2.917689203287049 0.19664292571884773 1.0041201388702081
H -2.6481058860172557 -0.10109493768076126 -0.8182373562960826
