15

C -2.9008865311037626 0.5627358727273725 -0.43421106371045576
C -1.7712628686871421 0.26130764945304286 0.1628841572925612
C -1.4346706174907218 -1.165705118690952 0.39624033493018174
C -0.33357275334819625 -1.5914486940830195 -0.5396018356674431
C 0.6367225081380372 -0.7085126651658409 -0.757414233070076
C 1.4198861347235987 0.323520793479857 -0.7823726516393842
C 2.4496640202550735 0.44864095190186193 0.25373531128314436
H -3.1277170536670322 1.6111381225629453 -0.595064087390362
H -1.0630618134599943 1.0035688849507036 0.4986096927874626
H -1.1001820749796962 -1.2722991081321586 1.4546400099093293
H -2.3270526567053658 -1.804488374108543 0.23361043296157968
H 1.3200055862221296 1.0671024910895124 -1.531367541803926
H 2.8643929863527946 -0.5836770391927801 0.44805629304996436
H 2.0473993439896105 0.7907089699885849 1.2252856618291614
H 3.3203357897607986 1.0574072632193636 -0.06586145394818585
