17

C -4.533649253243479 -0.04133476699052339 -0.13319663212450086
C -3.3646174797373427 0.26231381933129777 0.4184365990744745
C -2.377642169486504 -0.6896595763561499 0.8194374041866508
C -1.2961425926990144 -0.738097297790995 0.08055334985868093
C -0.20564968520494925 -0.6584570853774083 -0.6525748828723701
C 0.7899518575156415 0.2986564590494583 -0.20491396076405888
C 2.0820587712111536 -0.3672535966014346 -0.02628287077208595
C 3.154097319556923 0.3844797159043548 -0.10658760734175692
C 4.151033089570217 1.2166226934959066 -0.23533091593535446
H -4.775949022819357 -1.0708528000093795 -0.2993088558111044
H -3.1564909388681706 1.3180943795884275 0.5703000381420081
H -2.374073755094245 -1.3735548911291715 1.6295012443629893
H -0.21099898242536738 -1.3134089433216596 -1.4778871405225749
H 0.834756167071673 1.1390011230757835 -0.9269378898123415
H 2.2906482012023095 -1.3851598510050809 0.16207440494766226
H 4.455134852708281 1.6808662780898902 0.6848697264746489
H 4.537533620742715 1.3377443400467834 -1.2111267311711396
