30

C 5.903891585043563 1.2949789061220023 -1.4310316698301957
C 5.208104276578124 0.8121671934241008 -0.428998563098166
C 4.740400945519475 0.4303486965563396 0.7479966042613955
C 3.8091466842632133 1.3121278284803468 1.4374262216136324
C 2.5879104335969263 0.8525130064184014 1.6211475410235014
C 2.133399346863238 -0.47932074908318073 1.1720531578730777
C 1.0822668066198529 -0.31962917065815116 0.12202160338879552
C 0.07035944415898004 -1.140377359041836 -0.0032811251273601747
C -0.06480417123300132 -2.287488157021736 0.9227603317787417
C -0.9056355750191808 -0.9226935831981742 -1.0413484560542594
C -2.1517735569342924 -0.8631742651787689 -0.7060866063164051
C -3.3770209499296495 -0.652640918872186 -0.2938685651425024
C -4.667957193364906 -1.1969710187994775 0.025181969827664134
C -4.444492172239701 0.2045029039328991 0.16712463894165155
C -4.884792995426953 1.3902113779307468 0.482736663003702
C -5.246564506311648 2.609189650565656 0.7247456213086245
H 6.688537388672889 1.997202657944276 -1.2265230041843147
H 5.092844145465726 -0.51708150272474 1.1077528167301929
H 4.062855838889037 2.287458931825416 1.7914991011359995
H 1.871160823296756 1.4749684614137162 2.1267263690985523
H 2.955699248707849 -1.0579327697294272 0.6828794279912679
H 1.203744214681582 0.5207653475905342 -0.5370653688480429
H -0.16299135021538072 -1.8721296710752338 1.9527328208645203
H -0.8981925758655871 -2.951956475559551 0.664002094309123
H 0.8933048193362291 -2.8744268742103225 0.9257292862597772
H -0.6903360262662191 -0.8021578287279024 -2.093865347367295
H -4.7869284464754145 -1.7989485662252187 0.9737237460213808
H -5.247147588416115 -1.6455649983437564 -0.8109779579099123
H -5.659194528550632 3.220378159930704 -0.05094259658147354
H -5.115794365444766 2.9756807863144417 1.726333677651268
