26

C 4.9608757936608 -0.49982639656327355 1.4841214636140239
C 4.27821617707382 0.4350994449792858 0.8827538022359585
C 2.883675172991407 0.15145294923359298 0.5153709092887825
C 2.2416205579920527 -0.9610414318949213 0.7316542902790822
C 0.8371535507273787 -0.8757625604075023 0.21682224193270233
C 0.6453530901750594 0.5286614001821597 -0.1609315360293843
C -0.3992649653504681 1.2532740250454495 -0.46489723093499347
C -1.7848360265978498 0.8171746557279485 -0.5142574102698768
C -2.765346658755832 1.671760237902557 -0.8499757557738364
C -2.186060009203544 -0.5794536056629009 -0.2069537006032783
C -3.6864738798228056 -0.7737693705155869 -0.42773156305133564
C 2.0340890179952154 1.1223551467845787 -0.16260406668379582
H 4.608777768339086 -1.469347588308771 1.7438429115085954
H 4.744460035057862 1.3813395679929523 0.671362930910112
H 2.6509907791062073 -1.8252591060344132 1.2109315339130657
H 0.20126386180094566 -1.2368259840511784 1.0405412379383439
H 0.8015533041376369 -1.5245096159167113 -0.6899293142673112
H -0.2598967313989367 2.324711620173105 -0.7199996571597289
H -3.7739407692183504 1.3166653212177177 -0.8761363161192931
H -2.575836469159064 2.7027814370725642 -1.0944509634561912
H -1.581278769080989 -1.3433697642924673 -0.7060322169714341
H -2.0648810818350567 -0.7519440149484284 0.9084642715438381
H -4.273987877088129 -0.23867808815030572 0.33786895437864023
H -3.8587252854629925 -1.8718136449567517 -0.22327189559905797
H -3.995320947079942 -0.6170419485969992 -1.464620389323184
H 2.3178203609963144 1.3775361515750404 -1.1819425313004703
