19

C -2.2051322921870926 -2.422666332390432 1.2938739386012124
C -1.9552947734554569 -1.399706902624187 0.5286654164395604
C -0.7010982577808599 -1.2702928775736517 -0.19285650527825426
C -0.4569640143323071 -0.2323750831409062 -0.9645018483626692
C 0.8089352988827391 -0.14893740901337835 -1.6633486860020272
C 1.9693637303251157 -0.1099668549562419 -1.0591190650362756
C 2.986087017069978 -0.37290888503082553 -0.32248600025321683
C 4.01903018496691 -0.5799140164424497 0.46149205751415634
C -1.42326957294459 0.8048700818982766 -1.1171946322868633
C -1.2210126554406597 1.9013992175063188 -0.4239562102131058
C -0.9410079748946094 2.9642326647511092 0.3080230784205043
H -3.094458040825113 -2.592661321315349 1.8542483738045883
H -2.694223067078763 -0.6208429564801098 0.42081876621634223
H 0.026256119565428213 -2.0577560863837805 -0.07368131983072254
H 4.137720959256493 0.028879265876110196 1.3485681646764867
H 4.740126920044919 -1.349019765625826 0.22185662993369573
H -2.2986390387436875 0.8311554909993714 -1.7152657428247842
H -0.3384225267180277 3.681056553002378 -0.1828469611047228
H -1.357998015710334 2.9454552169436887 1.2777105455860829
