18

C -2.656657225430155 1.5154975188928634 -0.8431447257832887
C -2.663894192654288 0.3576507139979817 -0.23590977891406043
C -1.7842698005378521 0.10625045980297275 0.9200882698163529
C -0.9174064261365462 -1.0931049157940322 0.6648939006365245
C -0.04589854662477493 -0.9656488382264746 -0.5027261743390987
C 0.8938720503199277 -0.057479260140415815 -0.4270254060187588
C 1.8740606028700255 0.8037115398801675 -0.20055783939882893
C 3.065845721966876 0.25891169784155116 0.4271205470207876
H -2.011016011936301 2.3134088416260137 -0.5170219015185572
H -3.3164498680317345 -0.42826238710333925 -0.5764405273438697
H -2.35067302244468 -0.0749280667807707 1.8482177940989961
H -1.552154687296738 -2.016533054991062 0.5552297419131595
H -0.32087145944974615 -1.2799693840449662 1.5989091874572579
H -0.049880238792281394 -1.4975778901857835 -1.4138280312282319
H 1.6333231059127586 1.7782142723977186 -0.5173957430097376
H 2.9578271805743936 0.27851049289858965 1.5407267174047783
H 3.248300280400022 -0.802347070389604 0.12605021012534057
H 3.9959425372911697 0.8036953303186086 0.1623735331164055
