14

C -0.26317145404272435 0.9146013605565224 1.1543988489164572
C -0.746844533713344 -0.24898948000806254 1.5680421985020798
C 0.06727804678169992 -1.4786535900547633 1.4109519225962683
C 0.6290698883856972 -1.5772415992242916 0.0922184260537531
C 0.01569640515071387 -0.8990749917878411 -0.8593247013624861
C -0.522483170391845 -0.12155638600404726 -1.7588791026701525
C 0.22296083775872835 1.0116686785374582 -2.132443452297065
C 0.899491767299778 2.0231228540699577 -2.4469984472812536
H -0.8466259136605958 1.8007847847488605 1.2671136503005356
H -1.7497435103126653 -0.3204389231293176 2.025138983561218
H 0.8180305780579118 -1.4354688436870904 2.2521891494603263
H 1.4802555337250114 -2.1091098465674434 -0.27825389771628556
H -1.4678180309387454 -0.41853730376174586 -2.1233915377405306
H 1.4639035562276703 2.8588932858382696 -2.6895405676183404
