13

C 3.3180387499820174 0.3852747995520888 -0.7125423848721791
C 2.1680934006637833 -0.13745422234989918 -0.31614078093898623
C 1.15528763472969 -0.7294492037362118 0.24363637132052654
C 0.10098706903147624 0.02970176900410665 0.9125285018353313
C -1.266963709572757 -0.2235630531091979 0.3156328251808789
C -2.332183496671393 0.5775330949504173 1.0316977843365744
H 3.974402023461859 0.6884438450707236 0.11981676829207279
H 1.1065426703976975 -1.7972896060701784 0.2077061061903541
H 0.30458007919329666 1.1152644540504641 0.9339156520924489
H -1.4579748877295864 -1.3191473585625086 0.38141234568994437
H -1.2091882067499908 0.08256712309154773 -0.7582704383283788
H -3.1902709369079436 -0.1233897668869197 1.2094587534648409
H -2.671350389828111 1.4515081249956299 0.41169477366632146
