15

C -2.4454503363197575 0.6180928061425277 -0.8976909993963387
C -2.4200563038977716 -0.6622197009520928 -1.0186625664592082
C -1.25826803291418 -1.4867416726623783 -1.0459695213034284
C -0.019357419052181055 -1.1203432646037486 -0.9562780533219917
C 0.4438719550233767 0.18875320551221692 -0.8109440916475021
C 0.8224414502446059 0.541462194591662 0.40251258967114995
C 1.2716417569455183 0.7885601337674879 1.6074348759216421
C 2.6732691548218135 0.4589109339811652 1.8495453078557529
H -1.6745858059011125 1.3179487509892478 -0.7968927070901268
H -3.407143069279292 -1.1588835714417816 -1.1096226091033101
H -1.3858335329560152 -2.596713201974616 -1.157476340025332
H 0.5600918341856485 0.9870877842632834 -1.5207459129402903
H 0.5512548067343437 1.1982228635098808 2.255221069414134
H 3.0006970408501736 -0.4032209426612825 1.2389588890336989
H 3.2874265015129907 1.3290836815379814 1.4774571802226808
