8

C 1.8109106488696907 -0.1866220486837524 -0.004355490665620008
C 0.47390948319660525 -0.15485640058671796 0.08384791471791109
C -0.8824840064127574 -0.6650405791843756 0.24161895195491484
C -0.7426819698596626 0.7673959831037731 0.051684428399600656
H 2.3580197934832907 -1.1101157640231754 0.07417872082413215
H -1.3290528748491846 -1.3551364090070652 -0.4869818272107015
H -0.8761973678181435 1.4134286601601607 0.9454068635996865
H -0.8124237066104395 1.2909465582208353 -0.9053995616199029
