37

C 5.163860841078287 -0.7692529894464115 0.43968855959168135
C 4.032021438599669 -1.371386351853237 0.803232117899608
C 3.32010296565848 -0.8534456166270288 1.9306684163045194
C 2.0138783555122832 -0.9444379427802682 1.875646004210035
C 0.7037507641973038 -0.9824851162161401 1.682687160359322
C 0.13920815352729451 0.14081674438089384 1.0222569683883678
C 0.49815476527170577 1.331263691089076 1.438526313262173
C 0.053907794608183957 2.6405862371249147 0.9184188604371987
C -1.047287539209362 2.881940658067015 0.21119647204205674
C -1.2692517233845624 4.314151917896299 -0.19926726853265078
C -2.074274324796143 1.9459662034948164 -0.22464684208540625
C -3.283522315326113 2.4828603778713827 -0.34310217838866036
C -1.9907002245607504 0.5107655122552589 -0.5583084610067706
C -0.8011467508496098 -0.19185246521715676 -0.06863837154828487
C -0.5417891784577645 -1.3111463663108027 -0.727052795538058
C -1.4324311658938407 -1.7258085034702133 -1.8385993649017653
C 0.6173167817687789 -2.1165939884820837 -0.34953056138124167
C 0.37095854823713686 -3.5830897200771914 -0.27231863148502505
H 5.55692577946598 0.0812385857242645 0.9563035064219174
H 3.682471331457849 -2.221051254401423 0.25035926417942866
H 3.675959765281662 -0.40062073054901887 2.815639026125368
H 0.2681285254155554 -1.8652479438401577 2.0610467010426166
H 1.202467053427423 1.3866950961355713 2.2593859112214987
H -0.2903293909296587 4.838569807217067 -0.07206146879650674
H -1.624328672007896 4.344518567296281 -1.241616734019584
H -1.9682986165767056 4.818978070057161 0.50088352353467
H -4.1451014368589965 1.9119902524171863 -0.6569906440711492
H -3.414985869289179 3.522344250667434 -0.1211598444907848
H -1.9853578975528046 0.4060681947655521 -1.6834391131858568
H -2.9005005434062627 -0.03411470445824369 -0.23212195780146092
H -1.3381961881356694 -2.820834754272832 -2.020503294461181
H -2.493153114671299 -1.5625782306274367 -1.5591011525793421
H -1.2388228366044907 -1.1493611309252494 -2.7657291558202086
H 1.5100900725717392 -1.8405181047558365 -0.9447529704204062
H 0.14183085885969823 -3.9949925975449943 -1.2520194750122786
H -0.4177687239624435 -3.7546762992047054 0.497351148160126
H 1.3062127175868288 -4.0652593553917935 0.09023338772132322
