11

C -2.5485291918487447 0.6424561149539985 0.3448375119598263
C -2.013849342193402 -0.5452606942556412 0.47485023959730616
C -0.6206384405131485 -0.8614280268725553 0.2856821351377123
C 0.2234856176190421 0.0869646973113654 -0.045490651877537376
C 1.6227094270114788 -0.2914089614131249 -0.22391994004754276
C 2.5193589476589753 0.620376475371175 -0.5575208326690974
H -1.9901031705196022 1.5078800703819324 0.08051094087223336
H -2.6584933676493514 -1.3878993653465608 0.7502618303126212
H -0.05127630825844589 1.1182437422595202 -0.19225365671014488
H 1.9644816861679955 -1.3086053075561206 -0.09183451541069174
H 3.552854142525198 0.4186812551660216 -0.7040815042316771
