26

C 2.9638987547251565 -3.2484572557556164 0.46838579156937576
C 2.994185830172296 -1.9180358013312122 0.4390578544761439
C 1.7271926189966584 -1.1699775840998683 0.6473762389875195
C 1.7039978620329486 0.24597603754185518 0.20955503043594276
C 2.0241775100495265 1.508587403196771 0.29436650330351094
C 2.4210477589181907 2.7264466279137007 0.2586918463066397
C 2.6186788905021205 4.01764014078682 0.2312848481227547
C 0.9589697608548537 -0.794735372196505 -0.5311456774883966
C -0.5442219498389007 -0.7756114468354008 -0.5488891823926823
C -1.1306711456170917 0.13404148334898128 0.42454269240648995
C -2.4132309861843853 0.39167729710269966 0.26185446973247734
C -3.7171788977272406 0.5062194214621726 0.08250713153551993
C -4.53871330798031 -0.4845908630033926 0.7586519190542627
H 3.833599972878201 -3.8653527821925184 0.32725521483694425
H 3.932752739257736 -1.4042328386379797 0.2654724532256372
H 1.2034077958196698 -1.3781489878346818 1.5931021065819244
H 3.5578716545402305 4.409008215253995 -0.10230789421281049
H 1.8578250329706425 4.726005093269931 0.5378419068936158
H 1.4153921066439776 -1.0397098882264888 -1.5254030459729606
H -0.8690884096361304 -0.45283240821070964 -1.5594231484960612
H -0.9022021393940478 -1.8257141856696948 -0.4040857969304868
H -0.7085995272883185 0.6320257350984037 1.2514234412554743
H -3.9766998715007054 1.3168027326939078 -0.5396782608931721
H -5.515158783121821 -0.5590261768873882 0.19838956652586728
H -4.126707900221183 -1.5047939776120076 0.762046389716393
H -4.770525369852198 -0.19321061917569438 1.8162559006127612
