16

C 3.0661835563629656 -0.47967781890485645 1.3857716165505498
C 2.389689414611239 -0.586729781253572 0.25799598998836304
C 1.7156243136102538 -0.29197274527315975 -0.8388498203040985
C 0.3638693601950503 0.2854146868483112 -0.7474937873092018
C -0.2797580317740777 -0.030729249070378523 0.6070172129005461
C -1.6368321969259316 0.6005249246684717 0.5842853189420603
C -2.653572304635318 -0.31209007079341106 -0.06116068963028098
H 3.639049033599545 0.43195178369613924 1.5576942105654514
H 2.1315548543777143 -0.46155532983350894 -1.8110248382722198
H 0.32535142992385097 1.3602459436097398 -0.910851861723558
H -0.27014284112344644 -0.2774641780580294 -1.4935378646931983
H -0.32820027427795945 -1.1396923384824158 0.7469362110466824
H 0.33208504448356313 0.3749867741675094 1.4259549303546903
H -3.603123010057779 0.2790906340598051 -0.15071685506647947
H -2.3713611761840774 -0.5829085963497603 -1.0894466259456939
H -2.820417172185554 -1.2427422262375947 0.5374268525964039
