15

C 1.4646063710749235 -0.5555246767001136 -0.3033943848839943
C 1.2516566909397968 0.9359334725926041 -0.3520620186911616
C 0.014373509688477636 1.3920693896826593 -0.4527214709175985
C -1.174290845433986 0.5051693574731186 -0.5201004971373273
C -0.9929500569249561 -0.7974270147147949 0.178242622901666
C 0.4017044034367943 -1.0612155344981962 0.6787255354611308
H 2.440121455745857 -0.7887542012523578 0.1745942072705579
H 2.1267555369930577 1.5484758786061015 -0.30160612066237596
H -0.13501409113750407 2.4584172414454533 -0.4872788655108205
H -2.0595413693753284 1.0554328131568378 -0.08979782051896289
H -1.4194364488501061 0.37119498550533525 -1.614598603657778
H -1.3600413758627974 -1.6528720452942454 -0.4574908840010869
H -1.6614456878284727 -0.8362960841322682 1.0854906939842863
H 0.5501098568431261 -0.45129906341705156 1.606092123012378
H 0.5533920506913218 -2.1233045184532235 0.855905483351071
