27

C 5.803411409936201 0.30510436788222184 -0.3969144493459659
C 5.056742845429192 -0.7677159050245445 -0.19839049478251045
C 4.140242883990081 -1.6508430459608316 0.08349918244209598
C 2.920396655119052 -1.711561497012336 -0.6455131579293585
C 2.2003031165433535 -0.6120693210687773 -0.6734360907803405
C 1.5088200655910762 0.505471600897293 -0.5576136935036754
C 0.618085624299675 0.5817379005657629 0.5916148005778442
C -0.6414484086113069 1.3889772121021509 0.31108699018629987
C -1.3861584862752017 0.7158727448679089 -0.8359505621472489
C -2.60970276033709 1.4785995841682131 -1.1272159003279902
C -3.641303878396173 0.7189844827247186 -0.8160636633430312
C -3.1837186526836962 -0.5664124217995977 -0.31017964054725544
C -4.073775212360309 -1.6986083464081043 0.14750236120619722
C -1.871645195540919 -0.5703482645799425 -0.32090791579732614
H 5.531045909509598 1.196996218836429 0.14887259746431136
H 4.352880767033784 -2.32769960884809 0.894056900663205
H 2.474514452270709 -2.5129426845589458 -1.1864537547114025
H 1.7044923738042586 1.1974482491485592 -1.3277424113327927
H 1.150797179058002 1.1466741176373871 1.4078219175718099
H -1.2365072820865366 1.3599315997476054 1.2414452237341167
H -0.4333738481229164 2.433604007992657 0.06498692766456886
H -0.7292780344442128 0.6071148013103905 -1.7248632504751606
H -2.6907623236133134 2.5017992621467764 -1.5325571015631176
H -4.690945633454991 1.0166537790054504 -0.9243816922858553
H -5.126258512802372 -1.3713916949045741 0.08101825864797062
H -3.880125527371942 -1.962190150603269 1.1992106331176768
H -1.266729526484108 -1.403186988264411 0.003974957339161064
