15

C -1.2543218109295167 2.257003481056269 -0.46135611217641503
C -0.9164374479545557 1.1690848295250558 0.21913979096313174
C 0.1491065485634477 0.26143370830379126 -0.22422397742627057
C 1.3969951411665738 0.4151538123824121 0.6058100013582193
C 2.5516381484859427 -0.005403397625028171 0.09217216948261941
C -0.2369211031169956 -1.1543053807982147 -0.22334835469700015
C -1.4062430585630759 -1.605126773326926 0.2368869678131466
H -2.019213963975891 2.938297939286467 -0.1736154769859744
H -1.4622439769517865 0.9655973196976878 1.1321697101931663
H 0.46746089668853913 0.5591005625894805 -1.2665545448198876
H 3.435228335445331 0.11137807303097892 0.6979666029369568
H 2.6351828849799577 -0.44734493181697044 -0.8821239412769212
H 0.46469718161811785 -1.8743284723898137 -0.6176026233638168
H -2.1572053336723926 -0.9295299467481677 0.6475402468438571
H -1.647722441783699 -2.661010823167053 0.2171395411551979
