27

C -5.742193961194359 1.2618375697307043 -0.7063726881453327
C -5.8805824404006595 0.5032542117277704 0.3679105040940751
C -4.702279994729128 0.057707552126086845 1.091444752179402
C -3.6193113098893988 -0.31579605722402115 0.4719193883920887
C -2.5228593649971827 -0.549473224512306 -0.13481243966967713
C -1.4270488361218192 -0.9027485134704553 -0.7546170681342175
C -0.5199838542855486 -1.825407437133346 -0.08979908247066307
C 0.7367909637767913 -1.8828196815631761 -0.4454404580838141
C 1.2170601426097918 -0.9929654044574401 -1.5348118879277026
C 2.1859795974429503 -0.04597620695935285 -0.9388745337501011
C 3.0362065639220353 -0.4271365231236713 -0.005576307340541841
C 4.007012447135295 0.5328849574930276 0.5877312442723596
C 3.8864562200402313 1.8859562319854697 0.015633594238477946
C 3.345580031240828 2.8806310047147314 0.7286809116547177
H -4.8001413769139925 1.5781684921701506 -1.0893556937044753
H -6.866889731182636 0.22482700205140882 0.6934574219690157
H -4.684477711378161 0.02123502108151998 2.16384200414752
H -1.1762449660955046 -0.5352438136005251 -1.7344519583742921
H -0.8726718383915116 -2.469233950660564 0.7000985173960907
H 1.4044155616899152 -2.573834469498998 0.056331617544251214
H 1.613674543572174 -1.5448382198641557 -2.3924591588625455
H 2.1824143530554934 0.9712226179574626 -1.2866077341988855
H 3.0727218347505905 -1.4428445334518045 0.37282965901240606
H 3.883069686051339 0.5589728286352511 1.6885672949131734
H 5.0380603001215825 0.1803630803934796 0.3983735928393537
H 4.2218273508961595 2.12853290781838 -0.9817216694640793
H 2.9834157892744755 2.7227245576344785 1.738504780902546
