28

C -3.9722346481743456 0.10489538333133928 2.1220686096057397
C -3.6846019038867657 -0.6017757412504776 1.0567186669477378
C -2.523817083081849 -0.2417623299055175 0.2629027184676064
C -1.6496744861861652 0.9170075618681693 0.6339271072928937
C -2.230042686457552 -0.9492623436925912 -0.8095918018843086
C -1.10362732439741 -0.5891269244339251 -1.5681557614548525
C -1.277596470998068 0.0806251487415633 -2.8402729555801685
C 0.010923365267053455 -0.9245823675610466 -0.9932703167872581
C 1.24627352613515 -1.2922604236553605 -0.8253975352468541
C 1.995476694988419 -0.34427863567967 -0.1173550059249484
C 1.6454559277626577 0.003453495435683938 1.11384922509618
C 2.426368770199146 0.9718224867725586 1.8128592278718398
C 3.729077411334228 0.7589428132086997 1.8478679082082634
C 4.997886798572568 0.46318886744691967 1.846903406079129
H -3.4287690375883737 0.9463269290817165 2.4848119740303938
H -4.309537071590313 -1.4306590278766056 0.7909640766985806
H -1.0372361167119617 1.2020924758287999 -0.24288666075494975
H -2.319052364663854 1.756956602814725 0.9340987445684907
H -2.9064422031455477 -1.781317816475496 -1.0261629088811408
H -2.120539043403566 -0.36590904234137356 -3.4010547848176778
H -1.497357647172811 1.1674303347607409 -2.6333207978000086
H -0.3414849422147533 0.08850575253303433 -3.4692168155934224
H 1.6806749964455316 -2.181491951469703 -1.1627864506120702
H 2.879198808017575 0.10847287068082215 -0.5968919151498656
H 0.7839817956384938 -0.43589909376452257 1.5852783215084343
H 2.1290752359362695 1.8492040776564647 2.31757832873842
H 5.328072986339085 -0.14255323683170476 2.661528434222334
H 5.549546713037146 0.8619541347765242 1.031810217961702
