29

C -1.591730868978303 -1.8364461187895125 -2.6210977083688456
C -0.5824073574228388 -1.041541419960568 -2.3000315512831717
C -0.265930427823807 -0.824671243973585 -0.9276276474413645
C 0.8057272495649723 -1.4586865931747628 -0.5119060844246643
C 1.9397575458049174 -1.9929398906806688 -0.11594905283108345
C 3.1166930523865597 -1.1667171646945385 -0.2970535221258446
C 2.939085378894467 0.25534743307552477 -0.03325891450273516
C 3.8421442583071777 0.8273006128406766 0.7287541178292432
C 4.790443155389314 1.3156936350454482 1.4994908557424864
C -0.9296869032113599 -0.019366725592848712 0.08006952797296718
C -1.6111504251930258 -0.8221526066148397 1.0899969813712787
C -2.162595815681526 -0.1659836782989439 2.0845637028562827
C -2.684628685438689 0.5771650195831787 3.0429740060524653
C -1.9318630321403591 0.8594277176374463 -0.5839678209305228
C -3.217926119404954 1.018739177750467 -1.0086574405675575
C -2.2486141274190783 2.124653180794677 -1.2297099279582662
H -2.1836114702945975 -2.3266640195045865 -1.8636272991024727
H -0.013848953954633925 -0.5685065952293612 -3.1115321502589772
H 1.8119809037010903 -2.957506351964224 0.2789758387439741
H 3.757143959431259 -1.4143115417397396 -1.1405578265159477
H 2.1796000629201573 0.9102390948556688 -0.36792502868748717
H 5.629649220794464 1.687535677207856 0.9749509780191935
H 4.580946920163368 1.267116550858247 2.5333499453035713
H -1.7318615004383378 -1.8707962317831317 1.1457891869185175
H -2.0348492413024117 0.7526349709586085 3.855563676240311
H -3.6755181934055483 0.8882055696552269 2.8566603534043407
H -4.2268430824313565 0.6516115096231645 -1.1246123232284977
H -1.917117183938091 2.273674672590954 -2.2867550159923855
H -2.382988318878837 3.05694535952428 -0.6468698562351946
