21

C -2.853820426672223 -2.541777339311268 0.655355245061058
C -1.7220907303848108 -1.8849775649620024 0.453212819143517
C -1.7579139144727418 -0.4170541723637664 0.40837410069760205
C -0.4468396140274787 0.18991828478544837 0.13641926262090884
C -0.3871695399609199 1.479909861960861 -0.1585061189504512
C -1.6057190294589296 2.283724653515778 -0.2119264829058336
C 0.8296171530448756 -0.578277969334712 0.1757711030019079
C 2.0045972560803307 0.35013414253485536 0.21868159086988662
C 3.2624940243300435 -0.5274871612178961 0.2567649881731792
H -3.799262278059076 -2.0334784231788325 0.7878442690238889
H -0.7776354412720307 -2.3777903390078374 0.32032758554595464
H -2.3448110591240443 0.06359845272531756 1.1884149138744344
H -2.306526386942802 2.0704400534146794 0.6349921331605705
H -2.167313515082234 2.086224108823442 -1.139162240126598
H -1.365999824812829 3.381198239991041 -0.13501232758860338
H 0.8397184088978382 -1.3296416792391652 0.988625860957019
H 1.9858354161192646 1.0721944835471402 1.043403923415632
H 2.0296948282831644 0.9175333241834087 -0.7415242312507457
H 4.163147992844843 0.09342518971178321 0.0860768111189034
H 3.1222958997199837 -1.263446429431486 -0.5822646468387722
H 3.297700780949659 -1.0343697171468076 1.234068610939416
