18

C -2.7636604514600958 -1.3422717619540179 1.1014006451931633
C -1.8690498061894347 -0.9078753804101729 0.23940737708949128
C -1.2460742202309967 0.41469572475661376 0.44155257753700217
C -1.4905337054660215 1.2738548466471389 -0.7639109924794331
C 0.22884145210742965 0.30172572638287604 0.7827395150949353
C 1.019134336406174 -0.357729856607139 -0.24733868774361034
C 2.3213018763506255 -0.20613554120173572 -0.17781568845650195
C 3.5982505170391015 -0.003114828509855191 -0.021510243998209392
H -3.226878916842888 -2.294507618340152 0.9756180165061638
H -1.5896463997673365 -1.5008455708065196 -0.6029320382887537
H -2.406553123810588 0.9262257082234895 -1.2805881545904085
H -0.6407769693726395 1.1951953889531062 -1.4746991698820375
H -1.6637814162648599 2.3453063132156724 -0.45403155821654695
H 0.2666261135153238 -0.33904204890682776 1.712760401443024
H 0.6533034473116933 1.2919087091580452 1.038037080439797
H 0.707548390197065 -0.9551287507389254 -1.0646814740681219
H 3.9879846021235843 0.8620060999335234 -0.5217330594625695
H 4.113964274353337 -0.7042671597950687 0.5774095045799387
