29

C 2.7509971455607514 -3.4211789850614114 -0.37696675756536907
C 1.9486162848499033 -2.3882133856894625 -0.6106614965885733
C 2.1474730491502627 -1.1590565063376792 0.20462509212572164
C 1.1720694415988413 -0.10447519903652112 -0.1740573942263649
C 1.607664434421543 1.0570079512760897 -0.6259493322593469
C 0.691694983091154 2.1217436842258235 -1.0098651520101571
C 1.068040220806947 3.46504069214331 -0.565600209853401
C 1.0373077150277972 3.760270421606624 0.7221231134641235
C -0.7374713874527771 1.8064833385490213 -0.8569641767186342
C -1.1747658158536574 0.6681548226269696 -0.413839427570552
C -2.5147896423109666 0.08513129992078632 -0.16113433201411992
C -2.395586166641664 -1.1465431569056255 0.3046644593705056
C -3.5166651785320884 -2.065874516024407 0.6802577992613565
C -0.9670735257717642 -1.421046875274704 0.37613528669758967
C -0.25911368359519055 -0.3948387019733855 -0.03058322048147776
H 3.527439064676315 -3.4184717220500462 0.36029570425467483
H 1.1892408929626697 -2.4740752012193017 -1.374148164887904
H 1.9924201148662701 -1.3953215314740492 1.2956277266659428
H 3.183770484236887 -0.773872581335058 0.11765031465293266
H 2.666205107754816 1.2422338549621081 -0.7208243823509188
H 1.377190789718067 4.24537712323883 -1.2571414789336106
H 1.3098297864152306 4.740728229313639 1.0691485619813605
H 0.7344925192813568 3.0070333588795237 1.4358062856906018
H -1.4629206992200858 2.5597568559343156 -1.126781693535862
H -3.4501408274662095 0.5923169080162961 -0.3325007328947722
H -3.1392345592698314 -3.1081780784884923 0.6166511335856492
H -4.358809861744992 -1.8545387599317367 0.009261663441982086
H -3.865059062892417 -1.861747687327275 1.71929946586923
H -0.5628216236689104 -2.3638456525637404 0.7254713448296857
