36

C 6.885088575097678 0.27667649821345214 -0.0737778456688334
C 6.183982815886696 1.3725776886731056 -0.1676886470103405
C 5.590011334712641 2.5060412947980306 -0.5060724939796738
C 4.21277820838424 2.380451433048615 -0.960432555855348
C 3.2095083877068546 2.1990114834670296 -0.14239519722054148
C 2.24565805172846 1.7410063029716183 0.5974813932161482
C 1.3397979443566361 1.2180517251934255 1.377313478707001
C 0.49701728057044287 0.11918569026132739 0.9316227355263609
C 0.38729475646976774 -1.2250110077630505 0.7075184135793803
C 0.43910048310665517 -2.667236026132178 0.5261548730409528
C -0.8224677510786296 -3.2081091858821416 0.013183547262829536
C -0.899660949280739 -4.7163891485506015 -0.22192366755780862
C -1.8631454546121562 -2.466478015389589 -0.24591957328176228
C -1.8544903481345543 -0.997998226106593 -0.04002310690796791
C -3.0845346114250156 -0.3199221746015489 -0.374596833053522
C -3.2536730010521495 1.0886607384477012 -0.27530192571252293
C -4.517316044531015 1.8201233382896427 -0.5726469326579848
C -2.256207084918185 1.8170063153569505 0.08687801647441455
C -1.3982102566834276 2.786687020697211 0.359111302889376
C -0.7766455076231757 -0.41192818873266873 0.4155629091845772
H 7.276743444017575 -0.15829899071006712 -1.004114278562702
H 6.151680803423563 3.4043019624663833 -0.4232689999171964
H 3.990030275466611 2.43700114572791 -2.015681635518449
H 1.1820359953259258 1.5827827392616323 2.3849726138203473
H 0.6618135048024492 -3.195015039684803 1.4866498856806898
H -0.2987809837218177 -5.172264460824722 0.5832502586481078
H -0.4892433634646763 -4.940460166194269 -1.21058549370302
H -1.9346169990540245 -5.0576539633248885 -0.10005248832350498
H -2.763749622901605 -2.9555247874822546 -0.626397827869236
H -3.394795081739314 -0.699523687626047 -1.425178764056369
H -3.9412859544155645 -0.7844042782023223 0.25180722684429935
H -4.334173634644968 2.3815068973412457 -1.515499292666044
H -4.730830083171973 2.544252648349432 0.2104095335035345
H -5.376203997012213 1.1303499829433947 -0.67893928407782
H -0.9432469175951314 3.194787832529295 -0.49212538719725346
H -1.319264213995143 2.975754609170692 1.3918194117832146
