24

C 0.7396837910921052 4.3143852031682925 0.03565655353708841
C 0.6983509831172495 3.131779691183928 0.6150834726149458
C 0.3493322469037761 1.9899998037034208 1.1398167906532835
C 0.3329253964483891 0.8302565641983514 0.21769436708401915
C 1.3657693162819209 0.7018266634499222 -0.5375127111266965
C 1.558816188527864 -0.3327242580535242 -1.491173145067849
C 2.370336611953309 -1.3153090795716489 -1.145120589280372
C 3.183711851455236 -2.2486365370053023 -0.716039278633001
C -0.8116329579930011 -0.07366731177307427 0.21337213164047888
C -1.8805890011929218 0.09330393738218071 1.022369738495673
C -2.829408585967361 -0.9744820823252895 0.7627328103976929
C -2.2290132059685575 -1.8021457579684705 -0.2817360174705087
C -1.055710346633072 -1.260987462216179 -0.5872234462527954
H -0.18331922629912406 4.73021620728145 -0.39543645852031417
H 0.10381708519904033 1.957140008351457 2.1634066023572203
H 2.1652094903988384 1.4538750494213442 -0.4374804088066174
H 1.156831619602591 -0.44253735162369007 -2.4701908021993106
H 4.20291774765267 -2.0778907288027764 -0.9387444887573545
H 2.7090608618701415 -3.043850094613382 -0.2053525598164005
H -1.9576744435112343 0.9295021294340008 1.7433534472723036
H -3.073675082546852 -1.5773928109882716 1.6911096441219966
H -3.8027422620046836 -0.5795595368873738 0.33111884173051626
H -2.6880201679269864 -2.6938257001683414 -0.7089676821615709
H -0.42497791045939043 -1.709276545577084 -1.345790541232081
