14

C 1.1294659727178857 -0.1875610919329181 1.6488220664257724
C 1.0594098811973354 0.1344060514775433 0.37642654621559446
C 2.295555761411121 0.5350204066827849 -0.32833562056672694
C -0.23664081917731408 0.08185308948626607 -0.2837257789493336
C -1.3262034853921945 -0.27973722117304783 0.3699325394349635
C -2.633722717201684 -0.3273076653666962 -0.31683805019787636
H 2.0659185216328133 -0.16060751999807615 2.167781591605225
H 2.7580506042467476 -0.40667340594564205 -0.7316181332942335
H 2.102226638258694 1.2304458108883292 -1.1710845183435945
H 3.049858054829192 0.9613494024235861 0.37869688889545283
H -1.3008490379915256 -0.5501275148738635 1.416399864095946
H -3.4684584784805463 0.0014737982892783544 0.33765735034816907
H -2.6634245776447836 0.3554598223879269 -1.2013987316541173
H -2.831186318405675 -1.3879939623454998 -0.6140726670940294
