31

C 4.994587542731297 -1.5723562380448108 -1.3964336024118025
C 4.721706956276678 -1.3534325683408404 -0.11695323328283486
C 3.5085430686640886 -1.8723482556096562 0.4360299116101215
C 2.7377983867134805 -1.0043350051735869 1.055539852305002
C 2.0020483175334576 -0.062119799606647146 1.57073161527291
C 1.0973583287512731 0.6001431159676913 0.6633801820669821
C -0.22487644259984654 0.5551372449097354 0.6228156857327274
C -1.0574271682980403 -0.19025980699887365 1.5073349741371638
C -2.0707028400111653 -0.8261865070908552 0.9412738155889714
C -2.9851603936779054 -1.4996961625953051 0.2749042153851602
C -2.583780267827895 -2.8198508817931884 -0.19198559008997856
C -0.6864361484364382 1.3897958889223694 -0.4706045398760443
C -2.0629032333357893 1.6027363265069505 -0.8425824915684597
C -2.550478367448561 2.786078011329517 -0.595654421650381
C -2.9667179578038656 4.0018079069358645 -0.3151126967889199
C 0.33821361239471875 1.9397614642444647 -1.0928940700329863
C 1.5713501002180759 1.4904838654495765 -0.43157805959913303
H 4.341955734706653 -2.1279373974789144 -2.0502520122231225
H 5.46000491765708 -0.7771182989439315 0.4430381134962259
H 3.11613761359603 -2.8543907471167658 0.43102065798670514
H 2.1624816442481074 0.10382957943350722 2.6044689858584102
H -1.0181519209600196 -0.3355582581861976 2.5494711415879325
H -3.8950763549499707 -0.9772303817794211 0.17087733861533677
H -2.074309933651083 -3.361112654797309 0.6196780880368199
H -1.9975179622148775 -2.774851509916542 -1.1304738806520882
H -3.5240057681508787 -3.3832067557700602 -0.46104745605950487
H -2.7374808727745403 0.9285598118596265 -1.2910030570951132
H -2.8243028631616656 4.706573303205356 -1.0918558653914456
H -3.387275304633352 4.111528787456768 0.6499793249944903
H 0.3365049167502817 2.61031039562305 -1.9440534182039666
H 2.2579126596947163 0.9652455273982492 -1.1180595077490971
