16

C -3.359784022751176 1.1473534849104232 0.3523771858404146
C -2.6573522062416894 0.02107664425807667 0.38325472327649013
C -1.2228741926510682 0.029386178888083713 0.8075351242644623
C -0.39740502247804266 -0.04296871360919568 -0.3828991571364081
C 0.8275741649738345 -0.4983616166209094 -0.212754150979244
C 2.056770033058704 -0.859099410374808 0.08810274364695826
C 2.9715310850499046 0.21283153114577835 0.4566296858539584
H -4.396430836833809 1.1355859286476069 0.044864970037515606
H -3.1270081954572166 -0.9114944660125285 0.09884839324346344
H -1.051249547337386 -0.9094369712579551 1.4049657014121555
H -1.02326735635692 0.8966576002288913 1.4670327065111173
H -0.5999137721185275 0.20845528411672226 -1.3837889001057102
H 2.21565955277128 -1.8999707840094455 0.021208230364103704
H 3.9891896053686113 -0.06083706722457307 0.09738868564568805
H 3.067664942968827 0.3738656040284141 1.547511721981287
H 2.7068957680347245 1.1569567728854246 -0.058937512826315305
