26

C 4.248480946311449 -1.6695289115813905 -1.250806138723033
C 3.6722888688102433 -0.5017647630706938 -1.053059895498495
C 2.3147346483527977 -0.4118428954413653 -0.45102203772821986
C 1.5315295913563682 -1.4195049325986333 -0.04625131360660839
C 0.338496260634274 -0.856464576651887 0.4767117954844971
C -0.8846010615465515 -0.3008686213316622 0.13616176052090184
C -2.199619979778242 -0.34683386374669806 0.33834524438193825
C -2.9883407980443217 -1.2180268597905677 1.2052431642809416
C -4.257081458548639 -0.8918635378674337 1.0728111845013342
C -4.38035277681615 0.19794928043305307 0.1246883871533524
C -3.161898859466931 0.5224178546261751 -0.31177085795332815
C 0.19625954367683143 0.30116404192861923 -0.5229436290068631
C 1.5019385416646232 0.7868280153797322 -0.26131304859041343
C 1.9005546011292218 1.960137594204906 0.04535920194781957
C 2.400753868127213 3.1528215613225723 0.21440600477404442
H 3.7805935978325933 -2.605653834018185 -0.9938419624033253
H 4.21377790995802 0.37986714858329823 -1.3356531213655438
H 1.8320521949026278 -2.446515441814661 -0.13888046607980475
H 0.5858442781908154 -0.5041405313425751 1.5666268399091283
H -2.5709324279885446 -2.005392123186004 1.849891122470151
H -5.076815297006784 -1.360168311621564 1.5874393366848947
H -5.295186445574515 0.6748540561793154 -0.1844743547985218
H -2.9915205965543508 1.3194540318205887 -1.0371854963138474
H 0.10958472905644377 0.03531072775385888 -1.6364172804710722
H 2.523894784994765 3.455010143594506 1.204489300725806
H 2.6555653363272524 3.7527547482364185 -0.5985537402958758
