17

C 2.0963577287903052 1.1263235284265862 0.33379706404187875
C 2.2090585111929686 -0.14748745537409838 -0.06061674181576374
C 1.269468814719597 -0.7363707672707541 -1.0399148382195171
C 0.004591963862003567 0.0343593268502446 -1.1060129199683053
C -0.9354671692131853 0.019663841486643192 -0.20203790250590695
C -2.1452154219366046 0.8605382181022656 -0.43358315373005185
C -0.8841549363429083 -0.7805023136132523 1.0483904974915172
H 2.8123765277337167 1.50201362036241 1.052251434915813
H 3.002784873407646 -0.8008447643111966 0.32849674880636875
H 1.7193364437146466 -0.9129488503577745 -2.0230969205658904
H 0.9877505687718536 -1.758738382660974 -0.6502531109591777
H -1.856290450483903 1.9178316280818348 -0.1934865195210481
H -2.975491498297131 0.6061050514974258 0.258722608121607
H -2.5448342609974723 0.7560935161610371 -1.4582229477287842
H -1.9259491454170303 -1.136383730392172 1.238950474150624
H -0.15530290983706582 -1.592194346351334 1.0301999675907585
H -0.6790196396677464 -0.04276609601588536 1.876416259895892
