44

C 6.38888302651073 -0.26264660853660343 -1.4888151629943156
C 6.106586927003385 -0.07010078902414109 -0.2236383023204756
C 5.307199049332762 1.0960647359854485 0.1946145745799495
C 4.147269475523675 1.2141527867807242 -0.6735506251804684
C 3.2950835671606975 0.21486038937195137 -0.6198049213054327
C 2.5493609718848766 -0.8006444429997944 -0.48531518575689714
C 2.6831674417765865 -2.0255649576697112 -1.2586167458033752
C 1.4500526145080206 -2.5840778472912 -1.257729743361256
C 0.542390848504329 -1.7269325635997155 -0.5003181539129573
C -0.756806654101857 -1.5754156248961626 -0.37004548138278315
C -1.380643148923426 -0.5631054921785749 0.49748898349462983
C -0.5817231232292278 0.22993068046698947 1.150786829901671
C 0.9081112834317838 0.18795406748994548 1.0726199599824484
C 1.4563569355151387 -0.9576274450293565 0.4299619457121417
C -1.4249587492862181 1.1452974790655617 1.94815872200925
C -1.1047366818559314 2.564518285593463 1.7630833980188425
C -1.3923643583874563 3.249680712965382 0.6739955404351827
C -1.0360509068470551 4.689808980745542 0.557104662160664
C -2.7976447717028274 0.7714700472338967 1.6624913975581233
C -2.791343865605573 -0.26153543222240444 0.7862098203976396
C -4.007866494452539 -0.8488490672327004 0.3171742626971172
C -4.235960620759914 -1.8234119970620433 -0.5036345967246768
C -5.640410079558044 -2.2090389509139126 -0.7973096466925835
C -5.904393565033143 -3.191562137741902 -1.6240168886204038
H 6.02550915152134 0.44782778197541184 -2.217924423593193
H 6.4598298135274135 -0.7660072367002958 0.5117864161890351
H 5.89731623362964 2.0418386469300374 0.19481062307004823
H 4.937856170051508 0.9978678740305232 1.2500213859417688
H 3.8515748122910307 1.9614834714800178 -1.3517217315868908
H 3.51528659792507 -2.4561876983680624 -1.7454804088709743
H 1.1346625811440008 -3.5052210003110305 -1.7227966267313157
H -1.4137797975370683 -2.224299146657175 -0.9278655284558952
H 1.2291605800743 1.1827409641380318 0.6748322072005851
H 1.254418583240855 0.22726408716969881 2.151826442305289
H -0.5937891005927213 3.073167887529486 2.5924148423168796
H -1.8943743139137994 2.784983105305898 -0.1632774753750364
H 0.035996362362691284 4.868497567055362 0.6752761969228785
H -1.6698855904038425 5.342173192481879 1.1749804470385499
H -3.6604496240363815 1.2491066971287201 2.0873152104959907
H -4.945244212246916 -0.40158089464219904 0.7188394127314373
H -3.4772354895251794 -2.379383554189007 -0.9923854680374296
H -6.4502901622056426 -1.6815584679196647 -0.33094629320593116
H -5.100852248062142 -3.7402942273951596 -2.1082405408078846
H -6.915269468652761 -3.485643858343123 -1.849383295678546
