21

C -2.578885388807819 1.016562064213276 3.3320938358302796
C -2.410024035536713 0.2154635821869584 2.3150050211734334
C -2.3320987592097313 -0.48685348998388467 1.2227166488011707
C -1.0694826406892717 -0.1906617129848603 0.4088378701209048
C -0.9629607506803363 1.2279160887127287 0.07017531628814772
C -0.35013362782968876 -1.2045396131577883 0.17427887684785678
C 0.8694339005108174 -1.444255334325579 -0.510046753184169
C 1.2690359626774612 -2.7867803184318958 -0.48934924874208674
C 1.802263786854953 -0.6595840965198121 -1.2219839082409107
C 1.6615484679203283 0.5959067006218246 -1.3806816066211722
C 1.7267865010830803 1.9015839604898865 -1.6451438481030125
H -2.8946160828028544 2.0455255959809477 3.132788980838771
H -0.07564525131440016 1.6600897485717057 0.5637338292903475
H -1.0164899456203838 1.385972701027237 -1.012227361483194
H -1.8243133445977882 1.8389513734787468 0.5203014316808062
H -0.8047342345284259 -2.1703712545935203 0.6338398654725335
H 2.176578802512624 -3.016016525577637 -0.9887555298724852
H 0.6221413832565882 -3.449787109592931 0.026871357226315333
H 2.715981881380521 -1.0536968219052754 -1.6944115993500553
H 2.251026301743766 2.4362355607968036 -0.9153392517135086
H 1.224587073677335 2.138338900992827 -2.54270392625958
