11

C -3.1549025255224907 -0.03881435836426704 0.4920230062991786
C -2.1824799726559623 0.6969701753577444 -0.34353664708142295
C -0.8988050751459198 0.4937281101044151 -0.32135532208277834
C 0.27340957773634994 -0.04025689736942438 -0.4697127965968972
C 1.431259410762976 -0.6353492470474322 -0.5647116115958141
C 2.586630764187939 -0.1812879297472548 0.19851565236253302
H -2.6445211880091635 -0.43594098925971886 1.398299000195093
H -2.557438712204783 1.4521046621995404 -1.0165534872267339
H 1.5826462011097924 -1.5012616886287826 -1.2224817044739353
H 2.8037794027416254 0.8803257906160695 0.1642142223508567
H 2.76042211699965 -0.6902176278609239 1.1451667316988632
