23

C -1.6574750678098142 1.0333473257133154 -1.644654417120229
C -1.6704507987306427 -0.19312482357472507 -0.8878959803790729
C -0.4834929824484037 -0.7109090834907834 -0.6468815065827486
C 0.7107807886456476 -1.1428193286825425 -0.29413420847464844
C 1.2318827477598437 -0.6170306619447332 0.9484597778033403
C 2.0762764571840906 0.629570087381598 0.6906789342729398
C 3.2028531279517094 0.24465786891955899 -0.20309915784291654
C 4.2480868667506435 1.0407537890890428 -0.3443429524390045
C -2.7530596362668027 -0.9447179047265488 -0.35059385005641935
C -3.5798769973907043 -0.5180375775983053 0.5979733276355156
C -3.4322040095153885 0.840439865790868 1.2001947631082193
H -2.6883174280384483 1.2369269947749633 -2.0464804600761206
H 1.1016478401656238 -1.8195798116822333 -0.9949577897580945
H 0.424477535395631 -0.3985584660662245 1.6711768237942723
H 1.8941037238294494 -1.4051858333962677 1.4105198151397982
H 2.475545421897323 1.035977033901503 1.6462631475387073
H 3.198228469729097 -0.6845222260051714 -0.7546909756820667
H 5.09499835244077 0.825841695072445 -0.9718322905507137
H 4.280568331872543 1.9806040236911016 0.19721931581059948
H -2.9312230806789272 -1.9425537865541287 -0.7323172856950684
H -4.390565333300577 -1.1211653504322232 0.9786375476413951
H -4.012739114781625 1.5344240908364692 0.5529459853626186
H -2.34004521466139 1.0956620789831164 1.2143406706353768
