32

C -6.747699738114207 -0.6390790246583486 -1.0298926712611336
C -5.5567825273983456 -0.7564206209403393 -1.59115455738954
C -4.315806228647329 -1.0040670409754187 -1.8862049007142074
C -3.252530055228725 0.010909072396545564 -1.7623999071721226
C -2.59751122650852 -0.14876151576382723 -0.3908175037058296
C -1.5511052913179115 0.842623570457549 -0.25596218774489654
C -1.67119345494991 1.7033887421646525 0.7326878939726015
C -1.8470327501303692 2.534644112390098 1.7393297258601796
C -0.3830504143446029 1.0359984481028788 -1.0468435470559583
C 0.7733890329043378 0.48368745699859744 -0.6658929933526707
C 0.8525781546655571 -0.31328746371302585 0.5482329933268433
C 1.9626773443679508 -0.857160076276671 0.9349757348073541
C 3.2563675216810237 -0.7825878350718617 0.2768282705398021
C 4.277301861753881 -0.16296836725696692 1.1532141579553483
C 5.520185771117531 -0.40913613471355637 0.8503452171232649
C 6.747506663860046 -0.709680044432311 0.47091745361036735
H -6.764614923565423 -0.6207219419375267 0.06572312893008704
H -4.065529483388757 -1.987849332637837 -2.229943910761625
H -3.7172929347597337 1.018033094343783 -1.844618010468191
H -3.312096441121786 -0.14786139916896915 0.42618410385861355
H -2.1283019631056157 -1.1756507575485384 -0.392642722605563
H -2.3944373287038596 3.397752499185516 1.4822584486997414
H -1.4130419700761305 2.204748108996048 2.640054966586578
H -0.43909402578175366 1.6272125930339243 -1.9486264605005719
H 1.6248106580914374 0.6558349847637452 -1.2904808344838183
H -0.0880300155708038 -0.4268293745731505 1.119456504477897
H 1.9273851354623273 -1.4452171741012672 1.8701460613021932
H 3.261787011765648 -0.22944523252847335 -0.6772582622902903
H 3.608669202128135 -1.8070832430885544 0.01931624670591236
H 4.126638902025039 0.4526301454360302 1.991897798344743
H 7.137297787551701 -1.5880229938444117 0.9130169196324804
H 7.168555725339721 -0.031285689040646755 -0.22184715622734802
