27

C -3.5754046628588827 2.4629501366594866 1.6011940102857298
C -3.4298683573092306 1.3712057146574885 0.8721596601410476
C -2.9281301018018677 0.39575038997775 0.1486065409990616
C -2.714702736468249 -0.9484417221850227 0.7764811195036346
C -1.3996329541748553 -0.8950519838888863 1.478869116859047
C -0.24960152177924153 -0.5857430385897876 0.5430673091731584
C 0.009195985705014982 -1.547280914650707 -0.48667755494658227
C -0.7400873416882346 -2.6650378115341185 -0.6154551190086822
C 0.4010847172220465 0.49967494161972553 0.7671561549009
C 1.5306224458216595 1.0884270363321957 0.08342565221680338
C 2.059759547877189 0.37622738074096734 -1.065343666025161
C 3.327984461590582 0.27020339160744894 -1.41444731601214
C 4.3732985678647776 0.918723311338602 -0.5970625976912497
H -2.6980684055952215 2.8113725019789526 2.165248310691088
H -2.6664673066990234 0.5453118592659967 -0.8831207172358214
H -2.796809137786807 -1.6901116367915308 -0.01953818646433208
H -3.5048126271496995 -1.1087426200726074 1.5601221426696839
H -1.123727814127018 -1.8979868092472092 1.9251655535190004
H -1.3806169705144176 -0.18093008475336017 2.3215224571410324
H 0.7989372820292336 -1.4207446106042418 -1.1885206977785883
H -0.504664604090426 -3.35606087619559 -1.4057839099729568
H 0.018071296656209733 1.1070016895724946 1.667221092169852
H 2.35587605492197 1.2184564345859963 0.8635014417510942
H 1.3190895881522633 2.15017052706596 -0.22866478726499184
H 3.5941794612094276 -0.2889456640598535 -2.2940044494344303
H 5.318903521584801 1.0055677699665575 -1.1613912578018717
H 4.605591611408659 0.36403468720411186 0.3349330669483729
