15

C 1.43553342678113 0.845728393663964 1.5590515297404397
C 1.0465590585810576 0.2302593494406083 0.44966542987565833
C 2.1314535013616944 -0.6039837701682004 -0.20431702739609386
C -0.2580426696295447 0.31672337193537814 -0.1109061589357945
C -0.7226982268854786 1.5067699765084728 -0.7817545404250987
C -1.0641470161706372 -0.6900395319098002 -0.024175888276750955
C -1.9084705302168485 -1.6283814752704346 0.2612398141692328
H 2.4121026028435586 0.7489393754739804 1.9315719486271126
H 2.185114684358717 -1.5311988258120848 0.3760265121500108
H 1.921686807344876 -0.739512873845408 -1.276964859718028
H -1.6065315928059034 1.2875672415050374 -1.452446228025852
H -1.1478265021335892 2.2568446619746068 -0.048674553563996144
H 0.049445811086927485 2.0419205344127924 -1.3695610725538894
H -1.9673622093996783 -2.4136387583656207 -0.42595414892587663
H -2.50681714511637 -1.6279976695433513 1.1171992432588669
