13

C -2.398218534498333 0.6356874789517896 -0.03462377440923753
C -1.9203917496284957 -0.5737866268997723 -0.29652878818309253
C -0.7060902730522375 -1.0817046696396357 0.34904148399287677
C 0.5625243031472057 -0.596295906154702 -0.2912017836628435
C 1.1808915393583677 0.5245316702193316 0.4419251964198725
C 2.467042070852377 0.8286570909258989 0.323804600478785
H -1.8911032394312206 1.3011315989004253 0.6834381489915555
H -2.463194985263351 -1.1798309601723729 -1.0108388180655647
H -0.7108498481709891 -2.204821876367504 0.46707742674314723
H -0.698066542763607 -0.7058026825538505 1.4134664122666454
H 0.5461599319538998 1.1090709193492183 1.0956386881777067
H 3.152086910476516 0.28613434832458234 -0.31010951224771494
H 2.8792104170198725 1.6570296151165878 0.8783441928739164
