11

C -1.829625703934098 1.7788452376374957 -0.707274617843314
C -1.3126266958780013 0.6072954655482646 -0.3953128609852799
C -1.422589634576611 -0.8255967835651293 0.005531249885595924
C -0.13203560184190852 -0.283436981237087 -0.17864003386566427
C 1.174983235496095 -0.4111798060373017 -0.17718421271785192
C 2.4650453099847907 -0.36140210313805243 -0.2225595767108003
H -1.17265996336155 2.6158949831138014 -0.9568304579915494
H -1.7815361386115895 -1.0062376578908843 1.0387590065799446
H -1.9693979518836147 -1.4321464619136461 -0.7425635747491611
H 3.0128354847534813 -0.09261714776914963 0.6511862875996967
H 2.9676076598529586 -0.589418744748311 -1.1333059364455882
