26

C 4.6319670672678015 -2.4348115115381077 0.33531062835528136
C 4.242157658947417 -1.3270217336966887 -0.26505965805441484
C 4.023420082641402 -0.042890263114084476 -0.49135051116787354
C 2.727315368381309 0.47786367355294923 -0.12947629974824268
C 1.9973364197960388 1.0476746213441994 -1.049280706052751
C 0.6305710630385231 1.6170339158094316 -0.749796942766295
C -0.27070340870815174 0.4927883735368276 -0.618560427038571
C -0.8717129349606099 0.3819147019631965 0.5345080923876907
C -1.556540560649474 0.34044973240340565 1.6678469693181424
C -2.774066039106874 1.0645279415589601 1.6543121502936402
C -3.8279747668152515 0.8457708635667415 2.3826303606339425
C -0.6076597433263995 -0.5308275443351714 -1.5856090268224563
C -1.5683247503547126 -1.5275582843682916 -1.105334566448754
C -2.8601493986762914 -1.3215576290763256 -1.2413118679346289
H 5.014810338659273 -2.4305234070080357 1.350551725233788
H 4.7554812312049775 0.5942522449248829 -0.9176687419797773
H 2.3265161365999405 0.4190710221969978 0.875549816870892
H 0.33704135695186577 2.3310120601085766 -1.549251844752708
H 0.7054026329994809 2.20850136713095 0.17292081358473912
H -1.0738295628891394 -0.23324518229740404 2.4031491881835167
H -3.856086188944167 0.027135977394491924 3.1134359551951776
H -4.683671863912846 1.495928012138212 2.249596316218745
H 0.35903798667391196 -1.0109649234523865 -1.921860865709749
H -0.967431737978001 -0.007095924369710452 -2.5214491804999604
H -3.218860746692986 -0.4279421623053009 -1.7019641015568232
H -3.614045640146467 -2.0494859420683804 -0.8918372757427078
