9

C -0.028237752537367135 -1.0971394275400805 0.2080858155064378
C -1.0793469280181387 -0.10731064787817912 0.059217347352777026
C -0.2909074289183506 0.8756515929017044 -0.2914908609616869
C 0.8792419213226121 -0.0017882434483071277 -0.1859249674056039
H 0.12027545743137606 -1.5642966943290952 1.1961905636028654
H -2.1709042992892758 -0.13320282002978673 0.18701848797432918
H -0.46160193704032687 1.9106281804643188 -0.549937972567615
H 1.3834986751888687 -0.19584464521867923 -1.175594973932048
H 1.6479822918605955 0.3133027050781025 0.5524365604305415
