14

C -3.1028886138755936 1.3817477819990371 0.7302542819640004
C -2.658352729435747 0.16136002335787186 0.5693812291855643
C -2.1914552049090497 -0.9260285249937902 -0.01385518916446463
C -0.7740202802902352 -1.1553517096246215 -0.23410567307530664
C 0.0223397824968848 -0.16265339226141837 -0.6605743660092858
C 1.4127737185182165 -0.3921929692242893 -0.8753885416471491
C 2.245429527870105 0.28788682165630436 -0.10679231256849268
C 2.990364017509324 1.0114046022623469 0.6775471424636419
H -3.057989199525858 2.1133120847861173 -0.05982239358323114
H -2.8927539789260854 -1.6674239338593404 -0.33881366848477057
H -0.393074028417994 -2.135349659359051 -0.0454322143523012
H 1.899727234804345 -1.0288493409906683 -1.5610785155407123
H 3.2344341302104427 0.5459302371077647 1.6118772175379517
H 3.2654656239714557 1.966207979143747 0.3068030032745645
