16

C 2.6508705813469478 -1.071998088267189 -0.20284686298588836
C 3.0091645055694003 0.18533692687889367 -0.10738101844672059
C 2.1290642875593178 1.3035048695115776 -0.08345619932526385
C 0.8588787083859584 1.2579363881647134 -0.15087411196364972
C -0.0337900293327683 0.15775079065250147 -0.263879406752703
C -1.353666848939012 0.41733850883659324 -0.31506440976866673
C -2.2628766751450886 -0.6959368098069042 -0.4297222231647224
C -3.5641141645450936 -0.45427975542530225 -0.48108533639771256
H 3.360649454904578 -1.885000588010114 -0.21668762525940716
H 4.094832250774708 0.3896846771552211 -0.03960834789252152
H 2.5720625287799943 2.320759954812254 0.0015853401343602028
H 0.3189048909497384 -0.8567318660077827 -0.30827385065503043
H -1.7158328830795309 1.4220715513071553 -0.27174247488459646
H -1.8770978012847455 -1.7168025541197454 -0.4728133325114135
H -4.226327168939413 -1.3022715486319958 -0.5668794808520005
H -3.9607216370058786 0.5286375429501897 -0.44087141055265217
