14

C -2.2847715122089096 2.4070535109699183 1.0078154742330878
C -1.7240048064816877 1.2431670940368058 1.1966902829872352
C -1.4783842612885199 -0.05704303254442115 1.156104131388566
C -0.9271625233161626 -0.6490852263752445 -0.11534945991302141
C -0.18097776319012873 -1.929812886639138 -0.06373502390826673
C 0.518703927256238 -0.6307727456953061 -0.2303404797862462
C 1.6168400360594544 0.04656252316057801 -0.3747394525995717
C 2.763047933671812 0.6471267373425805 -0.5089744275977002
H -2.8477695523551794 2.675972548202516 0.13589134712426387
H -1.5920266261157463 -0.47312448257842504 -0.9881417069169318
H -0.21955086334379648 -2.5516988728682066 -0.9898944909789038
H -0.03133154521480808 -2.473379327947262 0.9049433415456392
H 3.268135278023137 0.9531761799737657 0.38821284770719633
H 3.1192522785042947 0.7918579809619073 -1.5184823832853436
