21

C 3.030659380586945 1.0700873301173919 -2.060206520470777
C 2.342659085333257 0.02423732908550047 -1.64761431380073
C 1.1423382119283219 0.16869658179849695 -0.8190068364789405
C 0.4054970451636367 -0.8245623212102569 -0.3701253384441455
C 0.6307433144774154 -2.2588496444735857 -0.6033679282565081
C -0.6953168766190945 -0.26836256272249354 0.413204456359632
C -0.6050194099192787 1.045055769798951 0.424041136910184
C 0.595821503426767 1.4712297631428608 -0.3733958906163563
C -1.7110834185014692 1.5968399162129991 1.2107082599564603
C -2.4753446117427655 0.42547527105600896 1.6684910764484608
C -1.8707517122118036 -0.6430565214659841 1.1961118039678085
H 2.6763001089021263 2.06522969703038 -1.762968894452367
H 2.6725750803746346 -0.9644165317196072 -1.9277767579544167
H 0.8741139961009906 -2.780628973703312 0.36708149044148125
H 1.3899621702581775 -2.44835194062134 -1.3670988732069984
H -0.35100749957590377 -2.7200498450310246 -0.9149559749422407
H 1.313611404304915 1.8942618157038968 0.36013859507033663
H -2.3763660239162325 2.148114579978458 0.4950871017584184
H -1.3804171657348538 2.251474550182625 2.0408469015123702
H -3.3866266349314005 0.4146390234382671 2.2908951676600733
H -2.2223479477043453 -1.6670632865980572 1.3799113385378556
