16

C 2.295026129916578 0.6062743187338129 -0.3519526001766052
C 2.468046350549903 -0.5681670846762836 0.5324424821885937
C 1.278387972397249 -0.9787728848463755 0.876117935685669
C 0.21981951661107896 -0.17852908432977588 0.29945816234007333
C -1.2365730388270486 -0.3979637765867529 0.5059770658864783
C -2.2181701734093604 0.626659367876134 0.08895905817935544
C -2.0284462827425336 -0.5316130962587258 -0.8124490698949549
C 0.8184959415317806 0.7534425480162175 -0.4226477950970965
H 2.7967420879162312 1.4660447567561914 0.10182002168904605
H 3.4439599038560096 -0.9863905037982627 0.8221678339295265
H 1.1133847037731823 -1.8393144671202297 1.5321611334878935
H -3.1820470688000513 0.6208305665846521 0.6644274122189213
H -1.81191684876272 1.6098005659271348 -0.24068068792864034
H -1.4965348182803653 -0.3557599204097297 -1.7481683793178262
H -2.7456187391847533 -1.3744204756306673 -0.8533573763042809
H 0.28544436345474333 1.5278791697627314 -0.9942751968861218
