27

C -5.124243071389651 -2.504766437303083 0.7919930866374782
C -3.985710971022403 -1.9138869429618628 1.0399141427816745
C -3.108043340063962 -1.559580860950655 -0.08392032041863867
C -1.9580341127853942 -0.9615975352141332 0.18133521644660208
C -1.0951307895931406 -0.6138996031069248 -0.9313379190569786
C -1.5272218169061704 -0.9406358428497772 -2.3512423256460973
C 0.0674389270889668 -0.01649799533625199 -0.7606963017854204
C 0.6269747042823067 0.3635187840382104 0.5189112447156101
C 1.801399357240925 0.9617139279234648 0.6228573111193912
C 2.6721444543615065 1.314022950347438 -0.4808163542332985
C 3.8507007291632847 1.9236296846339567 -0.25945520568975394
C 4.2861214944419075 2.2493255711476112 1.118331404784184
H -5.831749855519382 -2.802827811892599 1.53620088686878
H -3.708739961532618 -1.6966269001649645 2.0555596019124813
H -3.4072255463306313 -1.788264261812365 -1.107062139709558
H -1.683065710911589 -0.7458101880361987 1.190525616478388
H -2.3280198778858976 -0.24241722724728174 -2.589592571865943
H -0.6553822679756514 -0.8450241433936299 -2.9967263332647613
H -1.8409376704765597 -2.017772039922305 -2.388073652943469
H 0.6690021947002848 0.21676943324774126 -1.6543974830770862
H 0.03586173772100871 0.13528067081172468 1.4095771047237022
H 2.1198504717445865 1.2006840221304096 1.651919497024339
H 2.433622499256217 1.1146056470785095 -1.5081195106563408
H 4.513234883705026 2.1930054352297983 -1.0661251006103971
H 4.568485068378917 1.3064599841722306 1.6670087470436363
H 5.137866173920669 2.9500352851389473 1.070026353206619
H 3.470802296388053 2.7205563942923074 1.7081941287731144
