18

C -3.0926823716010174 0.5432889463921469 -1.3466807341116196
C -2.791463729048115 0.23104605284784133 0.10756056214293734
C -1.5515005682817657 -0.6603819723657623 0.1194053716304393
C -0.3941086606028453 0.02247314372267012 -0.5014147611841316
C 0.6904942056564435 0.2244285017570501 0.21852380178851002
C 1.7809815199033667 0.8830771446241338 -0.41170584430120616
C 2.9323602343602966 0.3052788374984942 -0.2899847721288486
C 4.052993882195906 -0.3243423954290282 -0.44725717077769644
H -3.1374748747643193 -0.3776307443708639 -1.9489177571714307
H -3.6131788660450352 -0.3539769851424579 0.5635639295248122
H -2.600579454218898 1.183385457424193 0.6257207767132398
H -1.3028921153993263 -1.0117107249073347 1.117922556376963
H -1.8178599424134227 -1.5372339511089599 -0.5273509463702502
H -0.48454854732556774 0.3375257603978652 -1.5480629796641152
H 0.6735912094802011 -0.12797074239150436 1.2452541663506453
H 1.6129397639961518 1.782406217781736 -0.9345081027074452
H 4.771017568897783 -0.1407403476846468 0.2954282335428556
H 4.271910745210102 -0.9789221990455756 -1.241105589549252
