21

C 4.335265647899218 0.32369392744259357 0.6364217796085937
C 3.095284666382299 -0.08788360151246656 0.5802958821741041
C 2.080295787285761 0.39203997644579225 -0.4109735155010635
C 1.2318444035699105 -0.7482912093424765 -0.767459767404072
C -0.023411029147208988 -0.9899948577776437 -0.6588605213838383
C -1.1505803760358717 -0.267032034949237 -0.1460937857315843
C -1.2250699489281107 0.9138317644514894 0.39124129670163055
C -2.614733577644018 1.2521243763795857 0.7770697918825906
C -3.3485966905401234 0.2335746556904177 0.4489183167849901
C -2.568668189779416 -0.828795149797916 -0.15521541196262797
H 4.768556722913254 1.0463860404992886 -0.01391837069686785
H 2.7619135467898936 -0.8289269955313794 1.2947519243997863
H 1.5547802061520244 1.264000937413193 -0.10424689432227593
H 2.7269312714159417 0.6915538159727967 -1.3074405615811948
H 1.8695539284130853 -1.5749597168912426 -1.240365951620234
H -0.30454366774469965 -2.0249351585082516 -1.0677634609740723
H -0.44011384616875504 1.623108780090239 0.5770774533491942
H -2.913481169105272 2.2038264241083736 1.2505196039194548
H -4.41636600641174 0.18858411599516778 0.6098637183102543
H -2.8307046110827287 -1.0620392489375132 -1.203081464836181
H -2.58815706823348 -1.719866841240922 0.5092599388834941
