19

C 4.360858138063828 -0.8515209409836347 -0.739097330878106
C 3.116396783843695 -0.9689443396258611 -0.3455767097713035
C 2.3138608267063803 0.10665902595895436 0.27428803814327707
C 1.0586972939582184 0.2943357354630368 -0.49469918431703225
C -0.09104019395547402 0.11810808319927432 0.12530474886743082
C -1.3790600346883028 0.2734935315130646 -0.5222781750185532
C -2.5065683444109452 0.09088792424631177 0.12300264919121112
C -3.8422970488142285 0.23652156852012643 -0.4896013812682927
H 4.875280605474854 0.08023139633878057 -0.6209273434325766
H 2.6152814019851967 -1.9354837099503648 -0.4794028676533841
H 2.1149871357021004 -0.16068133012425767 1.3280223424616293
H 2.915671699843741 1.040467050579316 0.30086883262054265
H 1.060555394746538 0.5702312848385175 -1.5440490239003903
H -0.07998193405305373 -0.1557062379717031 1.1673566054291138
H -1.4044656000327331 0.545750310563048 -1.5592598233781065
H -2.495913551264395 -0.18841330438215007 1.1859640542709737
H -4.575645108243368 0.5958334783248991 0.27145819296885365
H -4.202839094118289 -0.7020416877230095 -0.9560805513903036
H -3.85377837074364 1.0102721612156467 -1.29862733050418
