13

C 2.7439612424373023 -0.2921997483166653 0.1281378859465438
C 1.7274277298017093 0.4641159729477804 0.5052266503715224
C 0.3509262385042294 0.18813464522043602 0.09343927689740879
C -0.05864895193905762 -0.7964146999912236 -0.6693290987473585
C -1.5405482851570838 -0.7243773547341062 -0.850753832273269
C -1.912528613935495 0.4749933282846123 -0.05821475440476659
C -0.7993069905001259 0.9680049795907246 0.4662369566214752
H 2.615718940588923 -1.163451956862794 -0.5101161878547228
H 1.9641149451244633 1.306226051856821 1.1398227667273275
H 0.5809425569907042 -1.5520315082528164 -1.1050386490941153
H -1.9627252588727337 -1.6115628262028496 -0.3100469062105393
H -2.9117523167186787 0.884859085477932 0.07577163192917842
H -0.7975812363242084 1.853704030982161 1.0948642600913108
