14

C 2.4985414121121012 0.5139060441234266 0.2635796204529277
C 2.0608209458683198 -0.6642784575438708 -0.1317599876808069
C 0.6351109533607685 -0.910729455933408 -0.1648242412168825
C -0.20578876744279284 0.013709656156691074 0.18944694505057022
C -1.683815399992417 -0.14490502688028148 0.18901320075594263
C -2.2480184069550404 0.9002233386246336 -0.7547404292032692
H 3.545879689871468 0.7796216473155105 0.31745014569234353
H 2.7934957357832273 -1.4024839130285596 -0.41691813692141955
H 0.26319993913763534 -1.8941405212457998 -0.4945937816965425
H 0.15828129528136856 0.9810728998879068 0.5139208642111077
H -2.0818777896326637 0.07311467938618493 1.1900046036124214
H -2.0023227926386853 -1.1307255925610644 -0.202049487342622
H -2.240572526730485 1.858853177687415 -0.18655942575676793
H -1.4929342880228054 1.0267615240112085 -1.5745117104966675
