11

C 2.247784108951921 0.30364305846869566 -0.2153509460100673
C 1.628855518516872 -0.8312875261517718 0.07706489279414351
C 0.17345944219064335 -0.8458820831761816 0.016160453904349146
C -0.5223768387958075 0.1979032164082084 -0.3092880611899741
C -1.985224559562554 0.28102219448958177 -0.3980803894737155
H 3.3238260940855215 0.4129327333271085 -0.1981014448338364
H 2.2081902154052133 -1.7116513959658763 0.3512101353025173
H 0.026660083451698412 1.1226539297716462 -0.5455405246539116
H -2.509873368004958 -0.6048273806132061 -0.03720390050855823
H -2.338420588690159 1.1430322548381666 0.2072194067320356
H -2.2528801075484215 0.5324609986036214 -1.4558620486568203
