13

C -2.969735821092076 0.5261407397535263 1.9169904200741499
C -1.9990710569713728 0.7495376385683735 1.0344621092512924
C -0.74649732156754 0.01375143232739092 1.0659989142238533
C 0.20532225238465457 0.2418101559610872 0.19036789177625227
C 1.4628470047504278 -0.5304103484768553 0.2603506668569134
C 2.0211046765037453 -0.7669118124036176 -1.1116567412648852
H -3.8817431997299825 1.1018190396002823 1.8483856830164678
H -2.120509355369744 1.49307240345478 0.26308678393565943
H 0.09576539040934173 0.9881642339719438 -0.5918784929748161
H 1.3835279123574769 -1.437350252174119 0.8687838800529774
H 1.4858555000623777 -0.12301377126884588 -1.8269891606346556
H 1.967903171201895 -1.8151146463611847 -1.4366784503270833
H 3.0952308470626093 -0.4414948129530037 -1.1424176065087621
