10

C 2.8293193839661104 0.1859680357600173 0.2714860001836464
C 1.6531240983199615 -0.40881682836852035 0.16136406275569126
C 0.5360548996143143 -0.9598881871755868 -0.2581917672132118
C -0.6906516744374472 -0.17925853766434638 -0.211195297584373
C -1.4554153396995715 0.607450138741893 -1.2377790533897257
C -1.9077265780058101 0.5131526108759905 0.12430857139896809
H 3.14932511736814 0.832470586816044 -0.5322021803999059
H 0.6085313918871227 -1.9731541095453373 -0.6167036450835716
H -2.840482435022498 -0.08137264145054529 0.3212575328102365
H -1.882078863990325 1.463448932010402 0.7216903366811199
