14

C 3.259703690055748 -0.18013902429810044 0.7709259407123389
C 2.4642046791092085 0.03470541908498475 -0.23891162076789546
C 1.5658604763178132 0.3594707823563114 -1.1596284452774093
C 0.47904382765685605 -0.5547514640380109 -1.3244948432670438
C -0.3595490367617197 -0.6241731868294793 -0.32082359560752177
C -1.2102107044689867 -0.5505210706910557 0.6749032502977499
C -2.2639397015466267 0.44721544772019 0.5675732429448503
H 2.8998759350030223 0.16178521660686854 1.7464083932627668
H 1.7505075945553492 1.265794347881587 -1.6762310933480526
H 0.2316649288183155 -1.191252911515114 -2.1269708356041797
H -1.0254344782311617 -1.2347360888174912 1.450028583765885
H -1.9802089562180505 1.358981652769975 0.023224988003749496
H -2.6743538162930536 0.7500031516497981 1.570085848306209
H -3.1371644379968306 -0.04238227188045691 0.043910186578658354
