15

C 3.0461109918921534 -0.012376367225953054 0.20083766000259334
C 2.063040875801085 0.27554414560131507 -0.6393145658734443
C 0.7415027610912999 -0.38363938225096056 -0.4748881442301687
C -0.07578417713475173 0.4135415706159793 0.5285196795883199
C -1.4307642224097215 -0.21625044572014912 0.7315303185472024
C -2.248052152190271 -0.3019002355804374 -0.502704648854105
H 2.897293620169683 -0.7221873771384874 1.005356776131214
H 2.2090992114378554 0.9840085950910433 -1.4435089298750818
H 0.18087213290973947 -0.494102959657848 -1.4080703836101658
H -0.2216987157550092 1.4099176189134455 0.09767355288683484
H 0.44093485316563635 0.4997027017086265 1.4908997139097278
H -1.2847285605638799 -1.2346695648967247 1.1510827257034533
H -1.970249912270867 0.41952996516697194 1.4683821825285346
H -2.199298148395592 0.6028941586951797 -1.1390999644746145
H -2.14827855774739 -1.2400124233220038 -1.0666959723803289
