37

C -3.1618287308353827 5.303219900037814 0.5886470737142327
C -3.048722328895251 4.103173585830427 0.04398734162194334
C -2.720882751591665 3.172797263789057 -0.814213467531476
C -1.3858593443212146 2.560836507840312 -0.7666086746062045
C -1.3250453943484088 1.2261387767132477 -0.5198527670416501
C -0.022713617310499618 0.6098895129248576 -0.4668081540169378
C 0.020137103223015543 -0.6777878026042877 -0.24271232857171796
C -1.1163929406002249 -1.5036595524255412 -0.04271045435004112
C -0.7049621461658228 -3.0084397869753685 0.05656132712666649
C -2.395865810371885 -1.4136142029933745 0.021950830509847266
C -3.2505106557401557 -2.673738301186147 0.2781216373713958
C 1.3165523298517101 -1.4755607579283787 -0.15918454248259475
C 2.516406558962803 -0.7112229063792074 0.13317683350793758
C 3.2990806704105413 -1.1267213473509947 1.1411523984783165
C 3.0267489598775623 0.4741086075031695 -0.5515516734970497
C 4.4533356704962435 0.7300599588618041 -0.48971994939442315
C 2.269568345487643 1.3464435959739725 -1.2346693115687746
C 1.113704223144791 1.5651907087184491 -0.6399466074216958
H -2.76675728907836 6.2002122841401475 0.10886683937319423
H -3.4242025982976037 2.8550689343426976 -1.556521776086028
H -0.5199107047605419 3.1165693387453466 -0.9317374501831078
H -2.2476539226280696 0.7685016431450169 -0.3928490982760576
H -0.5329983174527992 -3.220602149139186 1.108840519782667
H -1.5295869161940254 -3.6307074916129065 -0.35567836715622336
H 0.15553320350125893 -3.227877797679652 -0.5577209268743782
H -3.051648872787262 -0.5789077230203484 -0.07398878450780992
H -3.396112641511955 -3.245050715772946 -0.6198099910579994
H -4.206352112246857 -2.3015769121722576 0.7289427893687344
H -2.723519286964201 -3.232873635395926 1.0616009077441777
H 1.1437966583210106 -2.218744924319262 0.6416131873422111
H 1.445801140429479 -2.0412750759008755 -1.128839048819798
H 4.192339370737747 -0.634302662679846 1.4273001282526094
H 2.969572865233395 -2.011302396619283 1.6640823183968205
H 5.018546344371043 -0.24493182957100168 -0.5148832112519902
H 4.833283115009308 1.2922080860907796 -1.3918129604566538
H 4.764286127473012 1.3342588924445924 0.3870095727676844
H 0.9928336955714973 2.520220374625118 -0.21178735892604833
