27

C -0.8569189939498171 2.1024868200216673 0.5129540549517935
C -0.6561216509145869 0.8296567849429896 0.7888086716995704
C -1.8282781247188054 -0.0904667928397693 0.8647087506377812
C -1.942246389963158 -0.914127916314105 -0.3554013821400061
C -2.904202670097594 -0.6635210343720372 -1.2133507757781246
C -3.829514213927384 0.3852891520700216 -0.9799160250187624
C -4.700033932181164 0.14089841641640596 -0.047029210224716685
C -5.809129628095244 -0.11006413209207638 0.58729049144344
C 0.7263968560187247 0.3405671431330232 1.0171673782395236
C 0.9782172404913935 -0.7105965523229131 -0.027581553395030635
C 2.2011853537618395 -1.2041279004179104 -0.13728373484469086
C 3.4862540572606266 -1.4227858902617876 -0.018062660980038052
C 4.425024545770042 -0.5665039623028217 -0.7634126872587303
C 5.1426210094649765 0.43000504120969124 0.10991475474278904
H -0.036317904422514286 2.791233282531329 0.4508077454245407
H -1.2381827862646209 -1.7024130760816922 -0.5202557341595753
H -2.930096537556644 -1.3209607124058873 -2.106971304628891
H -3.7920825513772436 1.2850297932337944 -1.53721398171206
H -6.691895614941833 -0.5255599697667027 0.17480643494246242
H -5.760487129921616 0.14308582870735906 1.5911403140204663
H 0.8342283536111528 -0.16954439613221967 1.9974892753478213
H 1.4399630396512768 1.1790942683625432 0.9353899297983694
H 3.814654064124432 -2.214533036369405 0.6200444415173727
H 3.9316957341021594 -0.055376599521391213 -1.5923191483492696
H 4.416233045592077 1.125516525791158 0.5408259030013487
H 5.844087217552893 0.9876184173511028 -0.5484223541644413
H 5.734947610930829 -0.0698995025705622 0.8951896417154653
