18

C 0.38845515336552777 3.1647265072191577 -2.243153477111997
C 0.6194343253861914 2.410158892663323 -1.1854819668205747
C 0.6166552453700342 1.4075449119240193 -0.35937289636918524
C 0.7057169699883018 0.45413478728148193 0.523690792981755
C -0.43586565254227044 -0.4295927871643397 0.6794584048258047
C -1.5338021941689062 -0.28893698838454374 -0.03813348224951246
C -2.634049553599456 -1.2181331978637677 0.17983390180182182
C -3.7684597930347343 -1.1438610169652719 -0.4993410688298168
C 1.862974481412254 0.23038335987896463 1.3461541983646406
C 2.4731470408162073 -0.9130776293856439 1.1764769686586405
C 3.0388338882203616 -2.0797711673894934 0.9537350818512682
H 0.013809565480225224 4.167892378218172 -1.9967962364672698
H -1.6363001498735648 0.5006682163383614 -0.7850622137757998
H -3.867476371283907 -0.35781259696569767 -1.2412109155983022
H -4.589957388917384 -1.8257489540071201 -0.3470352916853113
H 2.2955869971145693 0.8614659501503971 2.0741041829303386
H 2.669518764647799 -2.866872003679188 1.5558401530205013
H 3.7817786716197657 -2.0731686618622804 0.20629386446816494
