23

C -2.8020956213139923 1.2390772583775564 3.0769978603718378
C -2.020650375921312 0.9721640313107033 2.1284616573337365
C -2.2321132277542493 0.26993188387096373 0.8938413915143173
C -1.1248372719559554 0.17696195268754125 0.0950515546911826
C -0.07920770154169099 -0.3855404026631301 -0.4196318321887292
C 1.036427385740562 -0.7786404114174023 -0.9915325103865803
C 2.280311742495135 -0.8462480947499073 -0.23471198383018707
C 3.4206607863298655 -0.414010588852994 -0.7378441651061373
C 3.4246833480191303 0.13596568716184232 -2.0679160444437445
C 4.537252907764592 0.5743188900697542 -2.5990960329256865
C -3.434447067419559 -0.3276295415136416 0.4038857611032126
C -4.582618966414477 -0.3527719444620103 1.0010182626156858
H -3.748483720173675 1.1254323324876148 3.3844469246762308
H -0.955607944042945 1.3655878591780433 2.2822641144354368
H 0.970489484357619 -1.0425363714637397 -2.0378658253194857
H 2.2063839640549463 -1.2728546563137209 0.7632300319828559
H 4.30581547353208 -0.49840181838438885 -0.11145489022999704
H 2.5156421692739865 0.1892723171292463 -2.6304797547587118
H 5.446016342346996 0.5151876208818352 -2.0225798126576597
H 4.561906736947469 0.9941057382006303 -3.6040357805898333
H -3.396071650836786 -0.8247030128620748 -0.5973915022112058
H -4.869277251399594 0.047587017350573926 1.944070902447697
H -5.460179542090116 -0.8622557460202637 0.5002152131272434
