15

C 1.7494710014509873 0.871703548755603 0.6109602185820707
C 1.2671191738980865 -0.5573006929531894 0.656818492812224
C 0.7087564940019696 -0.8766169444630033 -0.7239556418758115
C -0.43566362935636005 0.0688958212147494 -1.0381275569878314
C -1.533914887798063 -0.056069422844092005 -0.047595706736379494
C -2.1296822992991418 1.0466932221761907 0.3675750231322721
H 2.4823706954398164 0.9975229720920181 -0.22994225131296697
H 0.4897897219965685 -0.6499684466362602 1.435796840837941
H 2.0922779186448026 -1.2801502287078297 0.835909350947572
H 1.5300677667545672 -0.7004383541459775 -1.445015482499273
H 0.41220293431416605 -1.9287937021872081 -0.7902032012872465
H -0.03498841619336532 1.097036753858977 -1.0430918453480715
H -1.8168750897320722 -1.0234945379294733 0.30518003848270664
H -1.8534844112324191 2.0265428998747477 0.019489378987841796
H -2.9274469728895394 0.9644371118947296 1.086202342264939
