15

C -2.7464315146195193 1.2589632555659402 -0.15142120350505572
C -2.5292689183729893 -0.046294364657470395 -0.12335285550467427
C -1.2837913245732608 -0.6344992388822309 -0.6816280044314889
C -0.39455614536730294 -1.0570017271358894 0.3944298200634675
C 0.5913576480246151 -0.23125828104858617 0.6729310165673216
C 1.6126483254993016 0.5911313334611773 0.8034692403534082
C 2.7708036767274216 0.31910346081554775 -0.037378891737266474
H -3.6520791698194475 1.6524503791020893 0.2580917537324264
H -3.26508351827092 -0.7051037727226829 0.31139486236077246
H -1.5576529895573348 -1.4224061423947079 -1.39904772099271
H -0.4034255538951604 -1.9226879230406861 0.9963486066447174
H 1.44190551715022 1.347978070637167 1.5139050918298578
H 3.6749480830005505 0.7177762121256801 0.5122180625110838
H 2.760837570561065 0.8881088271532489 -1.0048132765279214
H 2.9797883135126986 -0.7562600889784383 -0.18336229242386
