16

C 3.281350665199431 -0.6204780844747522 -0.06908398384622884
C 1.9840774505959085 -0.30288401235418455 -0.29606975617126424
C 1.4027660235343395 0.8267367852099757 0.4024753521259368
C 0.16705010918460864 1.2459359839651032 0.2798177639171774
C -0.7860595197349647 0.5906922537531063 -0.6088865854216781
C -1.975316684195035 0.060566847347905746 0.11172733997684234
C -2.292458275456858 -1.217371246397231 0.10473028289469191
H 3.7360382256811904 -1.4511297842529796 -0.5725823836436126
H 1.4585385405083502 -0.9308337181502899 -1.0001034209463127
H 2.0752103195401927 1.3647971239965357 1.090637194748104
H -0.14394011930534495 2.134342126023434 0.8841915148547227
H -1.1419231203831166 1.3178441805553367 -1.3908980076321347
H -0.30198174784722737 -0.21557793503334785 -1.1689681103851113
H -2.5913796151607675 0.7505370345296778 0.6540473699396395
H -3.1625752496623942 -1.5866218632928069 0.6352269464474072
H -1.709397002498304 -1.9665556914254956 -0.42537742210684076
