38

C 6.872821812066949 0.8684795833385952 1.067048600758759
C 6.0974093250196635 1.6954947400812435 0.39190965700130387
C 4.830513324074437 2.173066571265633 0.8558019308195353
C 3.799971610950344 1.8999852326053377 0.08428224029570217
C 2.8222188405386714 1.5007862487480257 -0.6817210039453858
C 2.2545625462485894 0.22986769674895227 -0.3822511894167483
C 0.9571625654128783 -0.03296465736955762 -0.34340967392724636
C -0.18641139960097364 0.7263479016318366 -0.5513433411645001
C -1.4637785407401656 0.21058146287057944 -0.45030390635356166
C -1.6229390167926887 -1.1003246034384344 -0.13307213029055462
C -0.5242560665528017 -1.8945091173579303 0.08250568943112323
C 0.7556611940982292 -1.3635654545916618 -0.02219288893123511
C 2.0466507853267415 -1.974289990312877 0.1523114064875278
C 2.9437007432447 -1.0018215419765895 -0.0677793892961154
C -0.7802950792682716 -3.289029546173512 0.4182744096934165
C -2.04489570644001 -3.7066798054027936 0.4955867270141868
C -3.219931310650931 -2.85645480745627 0.2648179364806715
C -2.8775700920533183 -1.4676600260760497 -0.0678643509469029
C -3.761105276058234 -0.31230102546076366 -0.3675118364614062
C -3.7064711727436 0.887708450362854 0.5267832003578267
C -4.847614959996098 1.8400310397946236 0.45420933283481135
C -4.599840518954319 3.1186916456435525 0.7194231314248383
C -2.811302897532894 0.8583740076659595 -0.6349721079161801
H 7.818714194675147 0.5487807072131132 0.6545747219535578
H 6.4312046090528625 2.051135271675095 -0.5938448265880503
H 4.577256470658216 2.714498116952511 1.7255300650118273
H 2.577271535184879 2.1955833516649745 -1.444981592120043
H -0.027883728754718517 1.783957983314365 -0.8066931739739162
H 2.2556108824642718 -3.007410497943018 0.40886503662535406
H 4.008453535172979 -1.204130146496765 0.0024835031855360867
H 0.044238717483916196 -3.9438235831482733 0.5944190898037427
H -2.1977969376703475 -4.749073395018763 0.747321821152238
H -3.925786490108857 -3.258757737290727 -0.4877086823776579
H -4.610013127719253 -0.43826067963217674 -1.0660064304137158
H -5.856644165594353 1.5404217834317564 0.1983150540770355
H -3.6251986831504617 3.484140819499064 0.9793723689784798
H -5.401946980194369 3.8596644870565853 0.6804297629650898
H -3.0017405410970373 1.4134595135816852 -1.5586691641873065
