22

C 3.6546548981341753 0.33097131469640867 1.1958782471859817
C 3.4589002229942194 0.3637154882337133 -0.11520965585477752
C 2.3711364233437173 -0.45601579947984533 -0.764790382484237
C 1.2837864187125492 -0.7214847943890742 0.16814914577450935
C 0.013167766414382352 -0.3681922731226292 0.04446693492767821
C -0.4910932239156365 0.3800014023609322 -1.116466678245591
C -0.9667341707478407 -0.7150105926760135 1.0827904697590223
C -2.140110847287556 -0.49885954172025737 1.1679229965925249
C -3.3892224174722565 -0.06999306670582112 0.8938652292453262
C -3.9159268139385714 0.6046291943663308 -0.12903850246174856
H 4.4243327618330595 0.91338619293925 1.6396453463690048
H 4.091927778742236 0.9912421752800448 -0.7341999347589498
H 2.1133184808419188 0.028901436462117524 -1.7037380634304806
H 2.9082527503946465 -1.4059957851264395 -1.0763199169525404
H 1.5688821091131244 -1.2803288958401737 1.0731926540291694
H 0.24004030575675323 0.6694444021713761 -1.8648801899915057
H -1.3216481145286423 -0.24668838727845335 -1.5424571993745877
H -0.9826068405704791 1.3027839454239338 -0.6911841672727193
H -0.4659193340652127 -1.2877360529864168 1.927748602401676
H -4.20557998356223 -0.3078429247808723 1.6668437660238806
H -3.292960909131811 0.9043484691503659 -0.9362109376849217
H -4.956597261060987 0.8687240930213944 -0.18600776379678957
