12

C 2.3100543129479925 -0.5728584552123783 -0.1686246566820555
C 1.4930181998024037 0.3834202753105452 0.23118883052151432
C 0.07296995273577155 0.19612709486042093 0.09124683541393128
C -0.5273864437871465 -0.8904355173360642 -0.42267309924481966
C -1.9530102635097626 -0.6279752257616048 -0.3598204461121797
C -2.1118520860448764 0.5497783821165966 0.16181330279835773
C -0.9799902483241604 1.149998073787932 0.48081736062818087
H 3.3828367492844316 -0.5260783835785069 -0.10567040310037731
H 1.8757117587516985 1.2879349031671987 0.6544594663138303
H -0.03504817839457219 -1.7747040205789066 -0.8026442244228327
H -2.7272418244402385 -1.2851553083449867 -0.684003414698948
H -0.8000619290215387 2.1099481815697563 0.9239104485853943
