32

C -1.2215675333209464 -3.0836330479684473 1.0508164737372983
C -0.48558378101417654 -2.044964135224431 1.2480818130109792
C -0.7207187421505707 -0.6618367456758795 0.8298846357043604
C -1.7625166809317838 -0.1523015580556393 0.14062041713525988
C -2.8690293361769457 -0.9671301250467556 -0.3106550156770972
C -3.9057694547305175 -0.5815442757839241 -0.9712328583068593
C -4.234023055760684 0.7627855727903701 -1.433186482007001
C -1.5605200185216486 1.2766638963357806 -0.04246375774884874
C -0.41425262443185995 1.6205371904474275 0.5284671429475272
C 0.19210754678769723 0.4662301675019696 1.1075210890505087
C 1.575033163731504 0.1744330333817487 0.6700424143421687
C 1.7155045203199173 -0.555187299983166 -0.4084254076485976
C 3.056903037465518 -0.8653687899907536 -0.8728804516820761
C 3.2368160131338968 -1.5894016788760188 -1.9432276858171686
C 2.7225045507783174 0.6500651881162769 1.367347903655652
C 3.2232157578415164 1.799376455545769 0.994360372349674
C 3.643599442807159 2.95799612892529 0.544125246825655
H -1.0006426348765183 -4.073794816717366 1.3796693082377884
H 0.4510287318846896 -2.227386278776082 1.8106633854338443
H -2.8528801343896824 -2.0590716317375177 -0.07568188775165871
H -4.666930859734058 -1.3631303658809906 -1.2367162935755034
H -4.40467256290793 1.4388323403278098 -0.5886188377044652
H -3.522012992935628 1.1411608604429009 -2.1952398846677017
H -5.264722678149028 0.6986000732246923 -1.950094562015934
H -2.2274990360551064 1.9889781855501862 -0.5640631094076022
H -0.08073191486670216 2.672049001529672 0.49732050322677773
H 3.951684147981317 -0.5030817371626753 -0.34190085330652303
H 4.211210069531645 -1.8460478100755733 -2.3269010736244478
H 2.3900233888432982 -1.9645071613896 -2.4933076406496446
H 3.2534719658175475 0.19593256515876986 2.174888698396245
H 3.21602587276011 3.7992618989929494 1.0204060122534
H 4.354945831267044 2.8954849000734297 -0.2372885017454735
