14

C 2.134762491162038 0.016081616577118454 -0.908328505309433
C 1.0946702968499653 0.28085076767461153 -0.12527052911391842
C -0.12029611547528615 -0.5435397865637679 -0.027452808485507487
C -0.3565329679194755 -1.077554583601077 1.3776107431015516
C -1.2901947771010767 0.32894866341882345 -0.3538166816848714
C -1.1444131576325778 1.589040541699027 -0.7273888745968126
H 2.170383360816423 -0.8537204791656499 -1.5553776455210637
H 1.1590947654383053 1.175880930897105 0.4829685719040621
H -0.11910726439441116 -1.4057132672734813 -0.7150746450026749
H -0.8834793763727604 -0.3066727573621824 1.97851709791364
H 0.5743791632625153 -1.441869899557502 1.847601155307535
H -1.0216336008389102 -1.9613788717433474 1.2743033613791621
H -0.1732323965277042 2.0346186590742636 -0.8104930786788954
H -2.0244004212679365 2.1650284659285672 -0.9485886176824674
