24

C -1.9529975536348545 2.942968825304532 -0.8104583422175787
C -1.0715938397220859 1.9564756911850687 -0.8609028266744538
C -0.048143537926600644 1.1587368469227213 -0.7683803866028852
C 0.07998028825432585 0.3249129946851545 0.4429896011414674
C 1.2875649871847488 -0.486040308581265 0.4790798413678091
C 2.3487889407561746 0.017796220736452848 -0.108444242540399
C 3.3642833779478085 0.6542053902265599 -0.6339805566484379
C 4.118426628015989 1.5124703037413458 0.26463237657590405
C -1.095197906326644 -0.570495239473781 0.5065340656227938
C -1.9703734663263488 -0.6807040555979126 1.4877980197949041
C -2.976167337334677 -1.7014072645607912 1.1154035242101943
C -2.7066962977285027 -2.1940083655283673 -0.07018985239170543
C -1.4768269816040789 -1.5142837038885861 -0.5685000214582456
H -1.65691540641332 3.855977688884937 -0.2815443764180993
H 0.652996127721641 1.1456654098258652 -1.5738392529368816
H 1.4610197240051372 -1.4322310926900106 0.9081807014448826
H 3.4994103501217215 0.45410341482759903 -1.6616130540759104
H 4.889066403607235 2.1246591342752996 -0.2663984024664152
H 4.592406822010671 0.861629711040639 1.0468165981129578
H -2.012188556623485 -0.15009445273957286 2.433777415393329
H -3.8029121829640347 -1.9970506559690435 1.7209876740791332
H -3.2153498538808565 -2.950400202195758 -0.6615316745291813
H -0.6851999344164131 -2.3178144815680413 -0.6090368986998741
H -1.6233807947231829 -1.0150718088627282 -1.5313799300833855
