18

C 4.572113772742182 0.4430710985820048 0.7771353851474867
C 3.6073872325793648 0.8290697692708702 -0.030191786078211748
C 2.2871368461951187 0.21300968675268794 -0.008096638848016695
C 1.3265012208727085 0.6122431863510975 -0.826634732662359
C 0.02865997802009399 -0.00015649072979865655 -0.798228030068909
C -1.0640788115291528 -0.5207940464281725 -0.7554649801277362
C -2.3731325045831393 -1.1500028543774434 -0.7243402529404158
C -3.1891015651532233 -0.5310823458145237 0.32600925167063266
C -2.695923791456439 0.44199917861957344 1.0647101821046343
H 4.461660299227844 -0.34645597843929343 1.5057708266041647
H 3.7872113031423082 1.623762774946063 -0.7331978956673897
H 2.070970065139399 -0.5894310950427918 0.6864355470451133
H 1.5268592790341575 1.4126779900058395 -1.5261856448205797
H -2.920280648415569 -1.0557455300888783 -1.6822221226424414
H -2.2118954623143496 -2.2408598250235676 -0.5719926050489401
H -4.2006837789849545 -0.8649071945151877 0.5054925431894142
H -1.6985038472770808 0.8413219115991408 0.9592968316683195
H -3.3148995872394607 0.8822797643324185 1.8317041214749543
