15

C -0.3679788088208445 2.4241243644932147 0.12916395451272467
C 0.04688963217527291 1.2378313046102505 0.5343252469402134
C -0.12917061842650643 0.08015290405919225 -0.34745534292320807
C -1.1088576878399414 -0.883477714910117 0.22831868671985342
C -2.34423909414873 -0.9971415105067684 -0.23132855646581776
C 1.1049214146891442 -0.6579042110939491 -0.6499602786647583
C 2.321383976296269 -0.2512559836096536 -0.4030501191480526
H -0.2634863810817554 3.3141810399534988 0.7392461927401216
H 0.5091530901223007 1.1068574435190874 1.4946565625577588
H -0.7572567549040878 -1.4939898761764756 1.0511504731036077
H -3.0114073568708366 -1.7055547490742748 0.21694336794325977
H -2.649842866390066 -0.3799830307379668 -1.0396890209502645
H 0.9531718672555094 -1.6420234617477953 -1.1293706603952465
H 2.515589215185378 0.7066258888249068 0.06554416901490182
H 3.1811303727588873 -0.8584424076031332 -0.6584946749850938
