20

C 4.25667973223751 1.1343606324185445 -0.13398416118530257
C 2.7736706225097625 1.0537898481817707 -0.11072316766535664
C 2.136209159402893 -0.04560007078896657 0.332091037185186
C 0.6576457468259249 -0.12062790806983727 0.3531265746030671
C 0.16664139390665386 -1.263815900982967 -0.5082986406485182
C -1.339439917852041 -1.3065444168438909 -0.46070632535745887
C -1.93032259852475 -0.07038188254472766 -0.9530541551289512
C -2.8406405039445026 0.49217256584434727 -0.1956580483891331
C -3.733532150681184 0.9837713643682136 0.6192314350852041
H 4.740810192527047 0.3167560469863019 0.39933809350791744
H 2.201390275243246 1.9045188779016458 -0.46018002869946617
H 2.730618361868662 -0.8631545922118374 0.6682458026512942
H 0.3494810806769632 -0.3421445418766612 1.399662450283777
H 0.25386627297145686 0.8372013364765571 -0.02090034981077345
H 0.5744061867882726 -2.217424443085038 -0.17413521759522
H 0.4789448700786354 -1.1107918960400174 -1.558452135136812
H -1.664615785889608 -2.1383430131618324 -1.1138587448577637
H -1.7305889387220619 0.45559182539650406 -1.8528827306799736
H -3.3566104157628174 1.6555427758310255 1.3440627205931273
H -4.724613583659995 0.6451233922008335 0.4504283884101417
