31

C -2.0238373113896766 -0.5683678441855431 -3.1437994356650405
C -2.5154440828966265 -1.2241720304101238 -2.1241280783285266
C -1.926120780716338 -1.2361266159322555 -0.851149151806605
C -0.8254110521503669 -0.5406973081154802 -0.7046600987542416
C 0.24613227052630324 0.2082011134161513 -0.6092585025474754
C 1.4413423063713544 -0.5001484014635733 -0.9044172290348051
C 1.680379956256261 -1.561775782976888 -0.1582602980359231
C 1.8902777489975244 -2.5370497106896104 0.6956985912527325
C 2.5936263807595017 -2.188998104306803 1.8871453799864397
C 3.9154729646246054 -2.178089433632694 1.8685978663401612
C 0.038279534476376456 1.5518076427586824 -0.24184789632709883
C 1.069687495164855 2.407935442280123 -0.11646500902352326
C 0.8476358743146182 3.7966551411355605 0.26396854308056605
C 1.8414919902372398 4.656117345004178 0.3937651540597387
C -2.3149193289252117 -1.8839677097054404 0.3577491743107593
C -3.397719317676058 -1.4236221193174383 0.9470165787057857
C -4.489699383240383 -0.9005883998685514 1.4674288093646932
H -1.1336905616928037 0.008858680546474441 -3.082214491305864
H -3.4433340394471914 -1.7866862231224585 -2.3095546813032812
H 2.1913815063059547 -0.32749315621313824 -1.6280197300771901
H 1.500227239898849 -3.460319144793728 0.3750147541229079
H 4.522073734152512 -2.4156084446487576 1.0088102874272218
H 4.419847383301761 -1.9120177911104335 2.7808650433999307
H -0.9437681002768833 1.951776991302061 -0.046309603671419536
H 2.0693186954091547 2.061678681733702 -0.2995463007829279
H -0.17761417601939286 4.109717173074795 0.44080074136173836
H 2.8691250022529724 4.368504615520159 0.22329667773996964
H 1.6203386012754182 5.67138360742006 0.6773843028080083
H -1.8635718143671598 -2.694812210534001 0.8712966051791406
H -4.312555155134505 -0.10654098804455045 2.1451725722916213
H -5.388953580393507 -1.3455550151209923 1.1355706040367983
