16

C 2.3367175899344326 0.33614812027940366 0.6737371034652818
C 1.83901186316776 0.3954944734896591 -0.7015995572639971
C 1.224928076999779 -0.6125691079059753 0.18968248632493445
C -0.1473024858765061 -0.4067322710141982 0.7838967796675766
C -0.6989834420524064 0.9308508800113642 0.5217638590039639
C -1.8362118929886566 0.7766603893683036 -0.12310086637575036
C -2.101152508212231 -0.6372904617207111 -0.3227979675697386
C -1.123858129453077 -1.33215302575133 0.20168528275788997
H 2.050568481308825 1.0582237551860894 1.464720966682868
H 1.198481445285815 1.2117617111732386 -1.0764868422883318
H 2.523653408636833 -0.03915129588039215 -1.4847378517508067
H 1.5674605144746627 -1.6620662619933775 0.1902304445980129
H -0.2839102457128202 1.8961373050973984 0.7897704886672703
H -2.5267424452388276 1.5514862475606641 -0.48349915670936566
H -2.980543761430888 -1.0471985113361406 -0.8318801259826865
H -1.0421164688426894 -2.4196019465639442 0.2086149567728846
