28

C 7.047575776098397 -0.5434029438176602 -0.7680863829301634
C 5.95963849431421 0.15055868786885035 -0.9851004194000674
C 5.042048067027958 1.0689120503082086 -0.9861651993284369
C 3.878711768838434 1.6940860846155414 -1.0360243887737894
C 2.7170105675264673 1.2351663466927891 -0.2954209985808369
C 1.5383902969407026 0.920585407567646 -0.8555601258280233
C 0.6388085384434488 0.5080309743152761 0.21443416310726263
C -0.5927475404536596 0.13416140370983093 0.021246977580493362
C -1.703658392683431 -0.5163750857047517 -0.17010587880127118
C -2.7560350146300863 -1.2839537343888294 -0.14346246419796146
C -2.7407073164467812 -2.6917892025815244 -0.6393876703517618
C -4.065360250217571 -0.7954027712326394 0.3937905998280539
C -4.002161910537664 0.595824455040651 0.8619052299191547
C -4.569906910736461 1.6100663680544223 0.27273861915476033
C 1.4172341849744692 0.6170548190302103 1.4419093039161515
C 2.650733919252899 1.0474715955361003 1.1494014149197795
H 6.919422738698384 -1.4327313358081044 -0.1514789076783938
H 3.793665733547646 2.579444715159387 -1.6523689992481434
H 1.3427407660997284 0.9816973939419144 -1.9326998389100294
H -3.250811120781174 -3.3677615050678678 0.07946797081770163
H -3.230568214511381 -2.790211655109169 -1.6197812521150083
H -1.662068616389235 -2.9928975982338657 -0.7095887506380801
H -4.390117146374468 -1.5065075508683716 1.1756994803872616
H -4.830073961511688 -0.8795903884777511 -0.42817129661246794
H -4.4752066809588245 2.6017068666205105 0.6816680489454223
H -5.138505628344204 1.4597025492909979 -0.6294066309484638
H 1.0145944712857307 0.3749826669953348 2.419467331308203
H 3.447353381528004 1.2211713865428053 1.8660046979010565
