9

C -1.8878263994989806 0.7562048710775012 0.20798271768116675
C -1.5078485347703467 -0.4967074642887188 0.18090842468223642
C -0.43821086234732287 -0.8716304092692438 -0.7329868548740829
C 0.7405814460853649 -0.2971599453182794 -0.563486439265664
C 1.8458004197411668 0.09257873919532553 0.01623392738298306
H -1.421739309058501 1.4832519109242783 -0.42688168918127556
H -1.9595044028304742 -1.2321504788429838 0.8043202909938617
H 2.4791081695597734 -0.5526380925639306 0.5974334338179924
H 2.1496394731193558 1.118250869086061 -0.08352381123723147
