23

C -4.5691400940204305 0.1375292175084792 1.0297863043884434
C -3.996744358118135 0.4469370484299276 -0.12292165015048269
C -3.40430210973181 -0.5936026790121787 -1.014288836570794
C -2.0089179855746404 -0.16689271443916362 -1.458981308216444
C -1.199424230391588 -0.012064158792808345 -0.2339960250754873
C -0.010626059403876035 -0.5644544239701274 -0.1529085100367232
C 0.7668833285400696 -0.4087206703198488 1.0391506937176551
C 1.9564309059959475 0.14648242225151709 0.8872839226471485
C 3.1358052669437653 0.6222638420249937 0.6183700081763684
C 4.162354827546924 -0.3295393920743532 0.28525719666460936
C 5.364581507890773 0.1306581192555483 0.009192085837345513
H -4.978294797033259 0.9418688620359909 1.6263857019974144
H -3.943133777119721 1.4702741565400828 -0.4513427784408727
H -4.015413492384056 -0.6597592508501394 -1.9376208836991327
H -3.3252372408177506 -1.5281545549036668 -0.4543987786432631
H -2.1334064761713885 0.7682404210416225 -2.0313313018566497
H -1.5616830339632586 0.5572233966401826 0.6246261884435105
H 0.3287115724965597 -1.1291426766293062 -1.0264362398751918
H 0.5540721098432968 -0.6665688309175974 2.037558880527595
H 3.205071443228084 1.6721380333333709 0.6752757974565682
H 3.964129361040575 -1.4001546039890616 0.25897258243951304
H 6.143396369455539 -0.5553689080317872 -0.2409160988279661
H 5.5648869617773356 1.1750794899711718 0.033283049151451
