18

C 0.7591351839242285 1.2851379905815288 1.2980799034030788
C 1.3641333060764214 0.8939906699468253 0.19714392076971143
C 0.5463155565506657 0.3724591445041606 -0.8834386940659555
C -0.2941080843236012 -0.5954567202987134 -0.5401942907778214
C -1.0613508712467077 -1.4703570985976873 0.04221321449776521
C -2.3596825767771628 -1.0043239588127402 0.5645225351681145
C -2.8172456607810883 0.19667599330037605 -0.25800952195229954
C 2.8041206512597086 0.9905437093866406 0.08995778508466398
C 3.403122195248425 0.5858049865487441 -1.0427917945355794
H -0.30303812808329833 1.242954355789615 1.448159177937461
H -0.7972255779029295 -2.4985476029285687 0.16279206812285943
H -3.1088079918010854 -1.8129416437703476 0.33888979312044765
H -2.3385434651682684 -0.7850453227773477 1.6430716874770224
H -3.8816219778685737 0.42254502002641015 -0.08260572979623874
H -2.5884835415558443 -0.043521538587037126 -1.3143205138400835
H 3.3888100300717845 1.383467775074141 0.9115635587396046
H 2.8141498725996144 0.1962273792909657 -1.855206851174189
H 4.47032107977737 0.640386861323104 -1.1637342387119205
