10

C 2.422401244783526 -0.21899416977764008 0.2719334858966834
C 1.2390642481336613 -0.7346512942729803 0.498233565569817
C -0.0020282831622069866 -1.08999001861248 0.6372167090943114
C -1.0649873615279128 -0.5245303176865793 -0.2625646428803502
C -1.1367586244920418 0.9638445532510752 0.07593443408922677
H 2.601732115115817 0.5508311672884114 -0.4677574144912237
H -0.7083322832809328 -0.5631139058350023 -1.3273925962230766
H -2.0093046051548544 -1.0382207672700137 -0.10140487500020379
H -0.9945652241335158 1.1370382803122963 1.1545045121999487
H -0.3472212262815279 1.5177864726029204 -0.47870317825513353
