15

C 4.273709384018249 -0.977803508450555 -1.0286457437708534
C 3.062756372024081 -1.6183660639818076 -0.9517011688317976
C 1.8951312293283689 -0.8386191573503998 -0.9267071411668644
C 0.9079887448734448 -0.17763192608963813 -0.8861687129921152
C -0.35381412142088053 0.6522790586634771 -0.8118096670024211
C -1.080376932489148 0.2680284416388807 0.22460491983334505
C -2.358048480548483 1.00207831532616 0.4420081263406536
C -3.027095245072725 0.6220772359683729 1.5442353223366803
H 4.201816042010948 0.1317769586773893 -1.0673825796243912
H 3.1582245845467054 -2.6901160859343 -0.9056009206757529
H -0.5708328918436177 1.3966580904033359 -1.4877878765739794
H -0.8227028287591603 -0.4958508577861768 0.9116537604600501
H -2.723099245709613 1.73770234383831 -0.21540341273592348
H -3.9643421324745107 1.0745052507453576 1.7878438099181497
H -2.599314478778599 -0.08671809594997304 2.2539522839623802
