23

C -5.69195278156111 1.4416078525390952 -0.21447170890219058
C -4.578292797870274 0.7711304582222624 -0.38465594589624374
C -4.447299471610635 -0.5975998952089665 0.06833317205134551
C -3.3272198919315312 -1.261295406674734 -0.10673685529637497
C -2.1694227635670846 -0.6443163999887523 -0.7655393434369325
C -0.9494106476135677 -0.8148503140859416 -0.3514693143740711
C 0.21063805855384013 -0.8141215028045735 0.22389390232624792
C 1.4380129392838896 -0.9103254349523779 0.6502720115424793
C 2.3434163735706997 0.19683134259567403 0.4171751070176302
C 3.6026930683153147 -0.05108949247277755 0.1465808063910005
C 4.507330656908974 1.0612168582622912 -0.08649728815161889
C 5.766714462391819 0.8157214321403322 -0.3571944954664945
H -6.570672380391353 1.0330817634608487 0.2636168898823052
H -3.753593688337399 1.2694504770324528 -0.8754944846360371
H -5.2655531450150415 -1.1004383748998139 0.5584174567626022
H -3.2000351095240362 -2.2819540221111065 0.2200440550974894
H -2.3707940797339186 -0.026790637678113596 -1.6298399947786122
H 1.8261148702622747 -1.775828384153857 1.1732643305249746
H 1.9705191904962012 1.2239634703889883 0.4687233971179601
H 3.964674952876779 -1.0664560132639855 0.09711090272670228
H 4.1264600790876385 2.094495270487272 -0.03336873226240792
H 6.125390608052078 -0.18962821873004934 -0.40624792396314136
H 6.4422814973563 1.6271951718957973 -0.530691490446256
