21

C 2.3426989563856537 -2.6076686527429245 1.847319077562804
C 1.8942553118547487 -1.5284976158002557 1.2750414716459861
C 1.3952017049777348 -0.7249616633186686 0.4103476364018405
C 1.0536607782822034 0.3454151363632789 -0.2473834718477186
C -0.32511982483964685 0.7466412191845434 -0.42764961557111225
C -0.6845350938396264 2.0174516103217375 -0.3670804488138612
C 0.3124933136051229 3.0886976044230727 -0.11116031590141635
C -1.3436092748975934 -0.29811096734533427 -0.6845121175048441
C -1.4085105722477045 -1.2733501273519787 0.4339705535888244
C -1.1554238232076621 -2.5477072666898697 0.16988860762430252
H 3.4022085964966795 -2.8756481770229954 1.8634642279105222
H 1.811882582215687 0.9982002602690759 -0.6997337627578329
H -1.7133245706350209 2.320839889719771 -0.5012190502748445
H -0.170207973373344 3.955399790666167 0.35368542069295017
H 1.1450839463187463 2.7641027593563603 0.5282803955385714
H 0.7423046880572123 3.3944402135531795 -1.1017812608037814
H -2.360637989988454 0.18166489429559082 -0.7302816366831241
H -1.1860160150566605 -0.8155527359612345 -1.641304063126706
H -1.657680575863091 -0.9555896545092958 1.4495577864337603
H -0.9085729690991052 -2.87436715529029 -0.8271864087408255
H -1.186151195145886 -3.3113993621199773 0.9431080326279937
