15

C 3.2338840086580594 -0.6522655537230222 1.1761969388431126
C 2.4538124762682325 0.35545562022384664 0.8229007439721314
C 1.6214588479773022 1.3855828017105603 0.8012799744615686
C 0.46384585602495026 1.2486173949819688 -0.1156436125667631
C -0.5363099283982922 0.2922679372137631 0.37191897787876077
C -1.3162839354888989 -0.3400646539956939 -0.47813017280970105
C -2.339166414063 -1.3139517906320919 -0.024980594247454024
H 2.7646311066204867 -1.4058042629071512 1.7990679679639185
H 1.814429193891055 2.2426771176921916 1.4272963651968085
H 0.03768323389267023 2.2296068231788717 -0.4063764475621103
H 0.8803961349183984 0.8220709416841048 -1.0743591889602884
H -1.216809514415682 -0.1523267525218375 -1.530759994784057
H -3.2548007545274227 -0.7977377080622382 0.36960689684907394
H -2.6570168938780307 -1.9977560634221112 -0.8337945425085524
H -1.9497534175094915 -1.9163718514588939 0.8436758513487623
