11

C 3.935661463784623 0.21645305129245845 0.15537270447704132
C 2.6559571620545177 0.3744543886085238 0.4496362978606699
C 1.3704261802634001 0.44901781031187543 0.33056747139277115
C 0.5418008973865993 -0.741920628395981 0.3948612686971941
C -0.7453131755284724 -0.6706434547448467 0.6450051212725555
C -2.031499589495559 -0.5561672877013311 0.6682451527888795
C -3.2836735617676465 -0.22845979068951583 0.4659689093645562
H 4.254330688265295 -0.007622913731899429 -0.8744503841223423
H 0.8897986736357898 1.3993871134702265 0.1787257608942572
H -3.684917978270612 0.7262021605724391 0.7819573826251929
H -3.902570760327948 -0.9607004489919357 -0.034786402976923356
