26

C -3.6269588137375988 -1.0840941658451237 0.3108318823498473
C -2.413496565743646 -1.9049629066073492 0.2630080000764564
C -1.169185288253802 -1.5016959519921214 0.42080397363087935
C -0.824582723901389 -0.0866638647878041 0.6811088783773225
C -2.044779817953921 0.6916761291194474 0.841003310768162
C -2.3858141189359254 1.4621583955332875 -0.17151172057761854
C -2.6489022312354447 2.1972731443339186 -1.2273977143977601
C 0.06842543829111843 0.4661025683973581 -0.3964161139065618
C 1.3218683995908391 -0.3246513451185074 -0.4481217683296985
C 2.4803066565796623 0.25822271762744586 -0.2418552739090879
C 3.7404182273122633 -0.46797822201731964 -0.28052614844694385
C 4.904990929453163 0.1204947739232365 -0.07266099154948871
H -4.262184955774292 -1.2433799610159648 1.1928800275679847
H -2.560656074718449 -2.9828148865490443 0.0732024174087651
H -0.31957719887563363 -2.197406995993003 0.3671572615028703
H -0.2571649289372302 -0.009095845685895112 1.6489486843027867
H -2.7110675227462897 0.7388147090189463 1.659169661234482
H -3.2470578058231254 1.7194548857077345 -1.954869711633262
H -2.2233236407771666 3.1656717041381235 -1.2009080110082018
H -0.4427158946351491 0.30745554417466464 -1.3793257169148234
H 0.266337593998448 1.5345227275950029 -0.2573980964699022
H 1.2919147669847568 -1.3819562561117877 -0.6550546123853558
H 2.5477931834411303 1.3308249078677812 -0.028973494552605516
H 3.6988015759843957 -1.5274767208632611 -0.48880353498778817
H 5.00627358651735 1.1719164605424734 0.1388598854740035
H 5.810337223895805 -0.45241154539225775 -0.11032504198906681
