44

C 7.1260883549392435 1.2950372233985508 -0.7739433301670151
C 6.816253245297981 2.408999484170522 -0.13931576258159478
C 5.489275267192691 2.9130039122553684 -0.10950768124786955
C 4.539595131378038 2.0042778778273154 0.06630906215964608
C 3.7021092781192104 1.0233809947961299 0.24866871391417578
C 3.3926339687742644 0.709030015412286 1.6250198858161848
C 3.2145962993978485 0.4012910850776214 -0.9162941009256421
C 2.3311738549274543 -0.5586113836462637 -0.7599047196296496
C 1.4722883771355688 -1.4709791589386976 -0.46731263678097434
C 1.8070856423310249 -2.8337705098228954 -0.22482566370423335
C 0.6354784355200759 -3.4444889711673183 0.045830824063600915
C -0.43102770078363273 -2.4582969970676496 -0.028621913109207392
C 0.07022497235697654 -1.2455164795868483 -0.3423719777682227
C -0.7559438848853065 -0.05791494214663882 -0.4881672986311645
C -2.079715089492979 -0.09436537904944252 -0.3183148553734473
C -2.632153793361541 -1.3588190672253428 0.01245847473580061
C -4.040626316834735 -1.2627758233316366 0.16514239146929288
C -4.411609677226166 -0.0008795649763466285 -0.051894618999902276
C -3.2297281688811768 0.8411779983920932 -0.3719567242779196
C -3.162248735504058 2.1076548465055116 -0.6436806612554699
C -4.336896091119929 2.9492875123406193 -0.6747660535423897
C -4.253110258686478 4.231789440939756 -0.9518209565835912
C -4.705190421867126 -2.537998448132077 0.511899057717529
C -3.9610681892705935 -3.624871935088097 0.646793352823716
C -2.4915857439027387 -3.687095215766276 0.4796023223301754
C -1.9076188708039703 -2.529349841394619 0.16716326084154814
H 6.336326045589333 0.7423598762718999 -1.2933713360432981
H 7.609977325703425 2.9384237590922564 0.3663350663288462
H 5.085198227593751 3.87647563311476 -0.19890557146321053
H 3.2109389933342003 1.6445326563168006 2.1877751954005267
H 4.186781760421221 0.08409618031268813 2.083718602520706
H 2.453231049562584 0.10186066941366488 1.6520280402431553
H 3.4337821459602647 0.567307842024229 -1.9314047221343242
H 2.737937107116715 -3.384583903344035 -0.22432474147858739
H 0.5010985665946673 -4.498414051062116 0.2815601460064392
H -0.34454692344870186 0.9205645790838959 -0.7421589079571257
H -5.409645666703177 0.35078231947703803 -0.0026988743881800606
H -2.188120276955408 2.5647340499350713 -0.8581806199261983
H -5.30908397251444 2.532334725330219 -0.4688604317004575
H -3.282341833982999 4.684126080942404 -1.1649116505737265
H -5.118294486989961 4.869846397343412 -0.9784918876958137
H -5.764483443138799 -2.5476660310441366 0.6437616665591586
H -4.418379230168113 -4.587360459848223 0.9030840774656105
H -1.918655272726294 -4.578616997134269 0.5948380523065365
