17

C -3.72908916425195 -1.5715735754389684 -0.0699487276256258
C -3.1844902918559477 -0.5735105859270522 -0.729700285607574
C -2.4125474403010716 0.47654417665500043 -0.006419839377332571
C -1.2621574028700944 0.8557329609935749 -0.8258657273601199
C -0.1350077136209868 0.2561149353544045 -0.5644353730943934
C 0.9615639309499571 -0.3116710496705513 -0.14329480216221888
C 1.6919307808323785 0.35034088658648643 0.8778002757321556
C 2.9973903309458105 0.3300594203847226 0.7735772693070019
C 4.3003301628338795 0.2835180519223659 0.604445011649085
H -3.6317760093153573 -1.6556005873265316 1.0054418215504137
H -3.3030341913326633 -0.5209557603032935 -1.8131926022120737
H -3.042097219167816 1.3093599586616314 0.3308673648736421
H -1.2012040653846618 1.5558087393020175 -1.612564217256027
H 1.1694172209060802 -1.2338710472430534 -0.641406125637536
H 1.313838728215606 0.8595804206379662 1.7149004928114113
H 4.7020018943458215 1.0798708338200318 0.04231477266022542
H 4.764930449071191 -0.550548959476284 1.0574806917487996
