18

C 4.103367977694402 1.4553733639506905 1.5213001460451432
C 2.914185655958157 1.111110764527393 1.0648797066494449
C 1.912366300276994 0.6381907175565675 0.38054669801437896
C 0.9909617404719583 0.2889786591857583 -0.46273153176913095
C 1.0291637602316628 -1.0112790074365499 -1.0501059987507408
C 0.40021199785436457 -1.9672388732721908 -0.4170327513661189
C -0.2582773938049969 -2.8611678176599535 0.28709775759418943
C -0.08070946344483274 1.2017340857692294 -0.8192150749538237
C -1.3189903570453638 0.9892969570255635 -0.47843529334752843
C -2.501977892083017 0.7789924962157212 -0.012115495206755852
C -3.7900186742077553 0.8511299102825769 0.1229958620456372
H 4.560697423553318 2.375311068939728 1.1891342610848195
H 1.503831571325085 -1.3281237207862808 -1.9474876487461958
H 0.32388293951825975 -3.3601785982383583 1.017919920709035
H -1.279318461031116 -2.9600673841273415 0.0289839367692715
H 0.20400940235745932 2.0841448313118986 -1.3927222989603545
H -4.323146577730376 1.7450865597498184 0.4064975709105869
H -4.3902399498942355 -0.03129401299425121 -0.05529557932309357
