12

C 2.988074123893072 0.43868715019827886 1.2473588685979295
C 2.020491284909748 0.30161739810251575 0.3866859770367771
C 1.0516831822534245 0.26774650172056313 -0.5023760589012558
C 0.5145981205876172 0.4232320531562189 -1.7616792033927204
C -0.34548283754046416 -0.012334260836002333 -0.7674043823496197
C -1.666207047386919 -0.43346618492833155 -0.3301292272294522
C -1.8400263468268006 -0.7637591812083799 0.9362325698437818
H 3.1709200756773326 1.4348401721019015 1.6263565511755556
H 0.45594551052896115 0.6476268611957788 -2.8115290586402635
H -2.5107315833276505 -0.48669055543405776 -1.000658824305545
H -2.804986813973464 -1.086119846714011 1.3202028112684103
H -1.0342776687950683 -0.7313801073539519 1.6569399768965964
