44

C -7.358636272370214 2.1880029481883003 -1.0586210157313696
C -6.6028789046288585 1.6191941208979352 0.04290455448414775
C -7.201072103836343 0.6211369192397409 0.6501196851544335
C -7.724835698543264 -0.4862092301292733 1.1604230014017753
C -7.350667267691723 -1.7251338316111224 0.5215207746318443
C -5.325644393671186 1.9604406856096892 0.5697700301164272
C -4.194621219765336 1.5765765452411302 -0.004057715044566013
C -4.264217266367572 0.779027889395264 -1.214119896236189
C -3.229528703920773 0.3338033658678326 -1.8820102837605062
C -1.8545962620327707 0.5833382101278584 -1.4939046684133086
C -0.8371449137507933 0.11113843911452802 -2.2029987943838627
C 0.5626996790877127 0.3416486878041762 -1.8437012836919682
C 1.4351873446794081 -0.8168776560272762 -1.93197220388429
C 1.7209191865213953 -1.4188678355179358 -0.7905413807361439
C 2.0305708276324292 -1.8663736115628673 0.40951040607613454
C 3.1660278135700755 -1.2632759236590225 1.0339551254259562
C 4.24499813893121 -0.789293604291182 0.48128601960185846
C 5.161036972958545 -0.2591513585398319 1.4892708196085669
C 6.344135406172171 0.29850775285999015 1.323612347671859
C 6.889029083769549 0.4485130442130425 0.013718207340561167
C 8.142005221396715 0.08617843268996479 -0.14374716358456907
C 9.40209936274761 -0.2997929890099604 -0.2125549980470655
C 4.453987923967128 -0.49053954686891355 2.7674952473627967
C 3.3095645915797554 -1.0690269802739787 2.4775813423123267
H -7.662580661049027 1.4435794180902044 -1.8283540253084267
H -8.347086719320119 -0.2645245942707072 1.9742528492460159
H -7.623996799763537 -2.5773820926528304 1.203842598430049
H -6.266334412972516 -1.796307683738497 0.36184893801074935
H -5.250007063637932 2.5530485825408684 1.469035561469056
H -3.2214856745062233 1.8494731690224095 0.4169061015243179
H -5.272060621430026 0.536849621498845 -1.588407507585642
H -3.3933549474418947 -0.253921915249382 -2.774577500392923
H -1.6335246313940097 1.1701743856096205 -0.6022553652604103
H -1.0652146369012716 -0.4687890219717563 -3.0840419543093325
H 0.6798222680231275 0.9555875078078765 -0.9543940325277811
H 1.8954178544241662 -1.2769265383458765 -2.7610949815706416
H 1.3825025384786211 -2.6218856932521724 0.7483426937231874
H 4.445900758961101 -0.7833203977329495 -0.5734514358342999
H 6.88089009413823 0.6329826305577364 2.1890426991770537
H 6.433962821193787 0.8130483624081016 -0.869429186810818
H 10.102643785158598 0.46646996789422507 -0.014556086486451124
H 9.530772419925938 -1.320523002323071 -0.45517660759478334
H 4.876924184491883 -0.20351601306201883 3.721357542714989
H 2.5883908971886123 -1.3502777351071402 3.2581715417115924
