14

C 3.072878289453722 0.237479651804058 0.18263607268937757
C 1.9780680579560834 -0.5050461709001544 0.10020154446272929
C 0.9432455850257695 -0.2637822414217324 -0.9510602041479146
C -0.3111255901649217 0.282067557353777 -0.364732983663299
C -1.2944882160204312 -0.5159162904650857 0.019534471800839916
C -2.5392520408938406 0.03592622633931373 0.6019954809356672
H 3.302789064857677 1.0547378396215281 -0.4825753955627874
H 1.8590402907564771 -1.3001025103280315 0.8284565633980802
H 1.388001434365798 0.41920155636390166 -1.6947178378790726
H 0.6667853104418142 -1.214859677846382 -1.4793549462675928
H -0.4463800236705377 1.3480332187077022 -0.23959322714014053
H -2.8380805636889805 -0.6049435963129959 1.4785672878447487
H -2.4395572243373067 1.0567188620304062 0.9837717188492461
H -3.341924374081276 -0.02951442494628113 -0.17265404450496177
