21

C -3.854630050222134 -1.0413039966064086 0.6585764069745145
C -3.8735973637975576 -0.29493395144182294 -0.43799083323109667
C -2.6121190898772446 0.06416347335771264 -1.1239916774432497
C -1.4863975692546392 0.20188877626953336 -0.19886290444652277
C -0.8378266017606889 1.3436260676403624 -0.09509789168603594
C 0.2861204463157377 1.5316452466510289 0.8081400851838655
C 1.343066934760684 0.8016783090694126 0.6284368849634184
C 2.351830582115331 0.004842095384195534 0.5997836458532382
C 3.2249034496546143 -0.9639382277630361 0.4730357854074021
C 4.518934226475927 -0.678995572349367 -0.1701435341136606
H -4.761490593036859 -1.3134043627062701 1.1722526419853423
H -4.808886342794966 0.06290200713926755 -0.8483037941106361
H -2.7604351977847887 1.0089782530866251 -1.6756030783024471
H -2.3471649239642547 -0.7182155329242528 -1.8753558298216464
H -1.1968689323430863 -0.6412466561917844 0.3940216821880249
H -1.123405346334253 2.2085920603035345 -0.6934247372995979
H 0.22272811460860378 2.2504477402603644 1.5849649737668456
H 3.0426045553801084 -1.964558041004992 0.8177447399498126
H 4.645546815703607 -1.225448922192403 -1.1357545006186485
H 5.340753639084352 -1.015247388214865 0.501973968002518
H 4.686333247071729 0.37852862223313055 -0.3748229763186335
