16

C -2.1830713625269715 1.8021387383274277 -0.08034910063243804
C -2.006948865852066 0.5531057337828665 0.29470172671360195
C -0.7084898799661612 -0.10492335800688733 0.20325956556470207
C -0.5432200121135927 -1.532121210053165 0.6404959219963713
C 0.3332150234396842 0.5410101492891498 -0.26231472978649784
C 1.6143032138364573 -0.109037048098113 -0.3522455812474041
C 2.705117512479306 0.46332500703455065 -0.8050533728400816
H -3.1090633187223076 2.3276229774987036 -0.03391851992200457
H -2.8340343189481785 -0.011561536531620745 0.681623549344017
H -1.458034058273068 -1.9017261129404326 1.1408428920402351
H -0.3301245854115401 -2.2023362392474555 -0.20429550568609084
H 0.2896184095300571 -1.6286365848012672 1.3597596861312902
H 0.23201049274874527 1.5564327832579081 -0.5773515612222428
H 1.7172765417235498 -1.162167051742906 -0.0250147004365221
H 3.624548444700675 -0.07076947123703405 -0.8470114556182424
H 2.6568967633559875 1.4796432234681534 -1.13312881439863
