12

C -1.4430717657045293 0.5768776124487246 -1.4196768887783586
C -1.7336046924826656 -0.5474042205872093 -0.7500979333377926
C -1.2483633189599288 -0.739738533632371 0.5847779086781547
C 0.0573350422002725 -0.7529877351813682 0.7241713927084605
C 1.3539096616870134 -0.6587606209867592 0.791186883931904
C 1.8946267567368245 0.6435548816308826 0.9759240733270701
C 2.374084446541105 1.7557737761964638 1.1207868401620162
H -1.7957675298722924 0.7479270190845607 -2.427006688924502
H -2.3400725702963343 -1.2823373284991202 -1.262677026440247
H -1.7787980314585965 -0.8734696160736989 1.4964543073228092
H 1.85907929614692 -1.5834760252411235 0.6963102718433208
H 2.8006427055125718 2.7140407908684794 1.2600310004741484
