17

C 2.1800509489696203 -2.0210506742112093 1.1270517289108422
C 2.1738026284200407 -0.9089109760139518 1.8122797082633464
C 1.358214131990538 0.25238028750697433 1.6427447372816832
C 0.41522245527799273 0.512605870622145 0.773162449882962
C 0.01076539268568461 -0.4140080727387366 -0.24583690416461274
C -0.9251180088858073 -0.22307158410965353 -1.1507723024581014
C -1.6749493165781144 1.0006102342163359 -1.2095696939669305
C -2.6215091178550796 1.1568355555777918 -2.1477513409781035
H 2.802562432435335 -2.8592660713380575 1.2864305270357108
H 2.9197293875212766 -0.8953110165611009 2.636738510516152
H 1.564248979061065 1.0818042574803297 2.3842615119222716
H -0.1113559465717736 1.4847421328521635 0.8021157644301614
H 0.5188067909564911 -1.3783157820881977 -0.2900699936412867
H -1.1279431778195572 -1.0304197710455691 -1.875011923434386
H -1.4955358687714233 1.789823701636718 -0.5222263316262541
H -2.8149002447621734 0.37311347865064415 -2.8469303059136313
H -3.172091466074492 2.078438429562989 -2.176616142059379
