10

C 2.1922119829368016 0.6761665536904399 -0.3973219530693375
C 1.3286434337099526 0.22711944394660002 0.47703020909240396
C -0.043235093046973726 -0.030362453356080107 0.08918454729251994
C -1.0354756582654885 -0.05281075393033621 -0.8297468253209208
C -1.417222683556805 -0.4945001273428829 0.5047709395934553
H 1.9058105345484377 0.8689064744808029 -1.4389869636054724
H 1.6580373644154622 0.05625929961982276 1.4770298586610593
H -1.2407654678780176 0.15794161012407826 -1.85929008712985
H -1.4119113456895191 -1.5736705907074766 0.7681346075760386
H -1.936093067173786 0.16495054347500654 1.2091956669100816
