30

C -6.704602972461764 2.6025067384432554 -0.08799366892471677
C -5.84695152293844 1.6075556589151445 -0.24581607110390558
C -4.9347218225413965 0.6850338099179086 -0.17851282366649376
C -3.69006544191939 0.8658109599560923 -0.8829164031925149
C -2.579343992420541 0.3197163061697359 -0.4534219885377485
C -1.3051003490122195 0.48513412139912265 -1.1451761294780205
C -0.21892002030788843 -0.0871643894970734 -0.6679404132025892
C -0.3004659392282292 -0.8830420292455694 0.5509030314762939
C -0.3885364676942099 -2.3549402227342218 0.36301695436206355
C 0.5382686242483384 -0.4483703141282757 1.6618818898449126
C 1.852514149057908 -0.4371412046431494 1.5322609414042812
C 2.4256707407239646 -0.8656886534463184 0.26540767161853157
C 3.4335651067422477 -0.2611133397512198 -0.29246124026832493
C 4.580568924999496 0.27288112466753184 -0.6025780688525064
C 5.795130127511778 0.5781204764308729 -0.9016916093367694
C 7.090014505124536 0.8124270490182313 -0.8827013164527021
H -6.404124290662649 3.3552769528481887 0.6553783951198097
H -5.10585819801973 -0.20229723950410283 0.39777235496332675
H -3.6270729679630356 1.4594359447431386 -1.7927918778932985
H -2.641983851481614 -0.2819061613154574 0.4682861529193372
H -1.2997169247960083 1.0827980239091342 -2.040980148816647
H 0.7113826920461164 0.0738684552548716 -1.2333332630317086
H 0.31568071560131733 -2.8428526755947816 1.0862287477998342
H -0.16408578451811584 -2.693158683723796 -0.6569125476369567
H -1.4224985958464171 -2.673938452021212 0.596321225691609
H 0.11698456409013573 -0.1279296894625356 2.60820188102298
H 2.4843607071152274 -0.11361197369583065 2.358264564013267
H 1.9863433093764575 -1.7230485365544679 -0.22140599452894485
H 7.499471628976258 1.803851374708739 -0.7513627180288596
H 7.8040933461985755 -0.008213431063739344 -1.0019914856679193
