17

C -3.027368539833062 -0.9669742326435972 0.5447101252080994
C -1.9560338810581628 -0.17395200099854205 0.6491644189211501
C -0.7135262439425076 -0.5895159524878273 0.03130737447322951
C 0.26416764304983925 0.4521792314924405 -0.23668685925419378
C -0.1369042917570221 1.8005586121303905 -0.7142833266265192
C 1.5354636124459797 0.19667994083770787 -0.052465480635677075
C 1.9643699516007893 -1.1362560268385846 0.4221757604659329
H -3.0136901414460895 -1.8977761314504522 0.025293318559911633
H -2.0243410795497025 0.7490749492818458 1.1813067077670385
H -0.7494547007427537 -1.4177170551771276 -0.6586770135703975
H 0.003375730121479382 2.5857413369936464 0.06714759798694284
H -1.1880870459615795 1.8236484977920133 -1.0740912295207654
H 0.5004306201571646 2.1301017801264486 -1.5839084366538836
H 2.2692860453282875 0.9583586529402881 -0.2469086972718519
H 2.833063268034264 -1.017280460759027 1.1275488514777827
H 2.29640954467276 -1.8009871679849818 -0.4159457075379067
H 1.142839508880328 -1.6958839732546702 0.9343125962111025
