30

C -3.3266020124486557 1.4679033321580794 1.2426688497147826
C -2.882978936314192 0.3886899495158717 0.2768873252493563
C -1.41067066574232 0.1829327464354367 0.47050530877256536
C -0.6815600327526785 1.4625301466861784 0.19092732094954087
C 0.5632518921056096 1.2632327166873067 -0.6093761871148602
C 1.2673202419542255 -0.003278587401595084 -0.2778152253275247
C 2.679537464862047 -0.005705590981150735 -0.08335071358766141
C 3.194504619853493 1.0603479125908692 0.5001543510775014
C 3.615093279636466 2.149747504669098 1.0781991389043726
C 0.5263435763405637 -1.0935479458837547 -0.17752813707109172
C 1.1898217355914371 -2.356921620992792 0.14787710898630155
C -0.9335929501250019 -0.9338048986734663 -0.40777367587680324
C -1.6869076062172375 -2.1968874438166996 -0.1580491538347892
H -3.678515522090342 2.381862311047048 0.7258861853464947
H -3.399592412789751 -0.5479660846326639 0.5916376453582186
H -3.1630344001536352 0.5999185423554781 -0.7575596897396852
H -1.2613743177873553 -0.054186932037244305 1.5626551504197446
H -0.4045859499538001 1.9921366722061615 1.1491016827466822
H -1.315388789782196 2.204859419410183 -0.35569775881475346
H 0.39040652614778515 1.2497618326108735 -1.7028804303854657
H 1.2394979143572198 2.124778816767732 -0.4178729540825652
H 3.3997672243817423 -0.736305114219025 -0.3345800858652968
H 3.6411548289831424 2.1130982228811934 2.1449963724831704
H 3.8797162045041214 2.9414490033915635 0.4202828926854027
H 2.002553181005101 -2.5505205565351923 -0.5967576384028297
H 0.5468251461440978 -3.234029920964511 0.16681405650026798
H 1.6933140252144134 -2.288218339159692 1.1531206387669946
H -1.239696755921699 -3.0136214534271875 -0.7916847274064153
H -2.7204176047467987 -2.0621028515342275 -0.5936481836684417
H -1.7241899042557518 -2.5061517891535123 0.8924436114389016
