37

C -2.4144800988399377 4.168496632062218 0.21700744919741383
C -2.5513838029018965 3.040108330556601 -0.4358917611776433
C -2.7884469253845374 1.786239973162741 -0.7838671274674686
C -4.058982071001233 1.1890938267987707 -1.1618506508555548
C -3.8529418147889243 -0.11527734777595414 -1.4508871716019967
C -2.4816953971257236 -0.47092190011907875 -1.306451677787512
C -1.778904527064206 0.7597875752138648 -0.8445697179817351
C -0.45621324944047353 0.6559044026908989 -0.5688189848416775
C 0.24306913294186483 -0.6577080907063585 -0.7811552580026855
C 1.3379584445291894 -0.9190301275223236 0.17171142486274707
C 2.4588438259102983 -0.07028238729129932 0.47877062243081875
C 2.6906188955574093 1.1050518513770236 -0.06460938481028748
C 3.912651265858295 1.8674654400512114 0.3754785540653984
C 4.791966747025264 2.098945220701878 -0.8129736697409475
C 1.1820933531143614 -2.1339558330756008 0.7608625072878552
C -0.01743559444660808 -2.7980248994833894 0.25077222223227347
C -0.883934358467294 -3.504063496527031 1.1973714988905735
C -2.214634382679518 -3.484659106813113 0.9555433406463977
C -2.835960395562668 -2.7861634742509027 -0.21619955734146315
C -2.006322185794868 -1.6557072481814814 -0.6672848767579136
C -0.7058335373697585 -1.7244207536507152 -0.42752070474629994
H -2.630939088967583 4.179733179444118 1.2763945917045612
H -5.0038361622012815 1.6858940928108879 -1.2077121567824987
H -4.710858484740812 -0.753099989576073 -1.7549035125028765
H 0.03616830584451553 1.4904067808671728 -0.19579133646007935
H 0.6147410350479403 -0.7450562160164492 -1.8059415330734232
H 3.19785154463194 -0.4178166635955973 1.2321710612558203
H 2.1127572632065332 1.5930368187921589 -0.8295428184106891
H 3.607019060632085 2.835618789198753 0.7841152683548329
H 4.472323311945256 1.2927479321152073 1.1408639053351946
H 5.845640833054423 1.9328845544762856 -0.5285701333828066
H 4.737017203607779 3.171549200559957 -1.1418515355900278
H 4.480599228651483 1.4966838573776122 -1.692737942855663
H 1.8329825797077506 -2.560444625462163 1.4947715972421642
H -0.46048733572169487 -4.01041388434003 2.042716891432322
H -2.8732005927367505 -3.9948475259282574 1.634151853567326
H -2.8278120260340214 -3.5477548879420033 -1.0489899529157498
