11

C -1.863297873690258 -0.08762698799730191 0.39026791570044467
C -0.9558042104253118 -0.7272236726233212 -0.6389691011622555
C 0.4627113476557028 -0.5908344177835296 -0.18944394793769231
C 0.9085841045851247 0.7987179970730593 -0.016252421497159754
C 2.115520683744061 1.001018157695721 0.5035089466491648
H -2.022095842685484 0.9878720586198901 0.13796285603628244
H -1.1878278232598423 -1.8166877531536711 -0.6815691042752325
H -1.1331818110145753 -0.3425068312409722 -1.6582371550007469
H 0.5544400590084654 -1.1009132526914058 0.7938827084758677
H 0.3370202364607699 1.6781379722064964 -0.27637181660713594
H 2.7839311296213967 0.2000467298949976 0.8044246358719245
