9

C 2.1026806285610173 -0.016352381716083678 -0.634538269282371
C 1.0462430725116243 -0.4141818688111548 0.01948427491729818
C -0.10236927646607016 -0.818626720263512 0.4837666584162452
C -1.3118386430735325 -0.12698214352493428 0.09271675677211833
C -1.452592866531331 1.1317905879420533 0.47456694727157284
H 2.5543473706103605 0.8169521721988727 -0.1379722998741693
H -0.024777692025651107 -1.6527933509153758 1.1319565959943991
H -2.1025159356278524 -0.5756086757428699 -0.4896304965567471
H -0.7091766579585328 1.655802380832996 1.0591728638665159
