18

C 3.2527083647469524 1.3372571998978007 0.5752919875996697
C 2.3581990181028103 0.1797402029459941 0.23328861523181268
C 2.8971068287812045 -1.164406507356772 0.5222953440387139
C 1.1705736531362343 0.368372488516195 -0.2909197675774183
C -0.10103617003477186 0.5225899105562123 -0.5171719555342361
C -1.295923448522754 1.0365249573243551 -0.6738711965629487
C -2.381407688358806 0.6486299607992155 0.23601578454263292
C -3.0145803147751398 -0.6556958813120618 -0.0931781220182737
H 4.065524999379813 1.4106191994167034 -0.1690567319562877
H 2.3355015427952734 -1.9842802175138137 0.07781625599502126
H 2.9927555860871897 -1.2368476450192725 1.6392078534067913
H 3.9493759637352923 -1.2375122800564093 0.12966853948242657
H -1.5091524867133819 1.7460094457274964 -1.4622974062679248
H -1.9890297646071071 0.5985433184063451 1.2935392675128465
H -3.1937025816867703 1.4258408646303466 0.2780418244018104
H -2.5023971534052953 -1.4537185529464935 0.5114660877226809
H -2.9428479010666457 -0.8762372049192497 -1.1862511316955853
H -4.091668447594111 -0.665429259096607 0.20541985453072523
