20

C -1.9381914800517728 3.1667907539074096 -0.1886595595998222
C -1.9809170061534798 1.9003438884486192 0.10583249072916058
C -1.886854144969752 0.6416834279277038 0.5103313418085585
C -1.0643854803740653 -0.24557960479436328 -0.30247249171397755
C -0.7060829221623955 -1.4378534282839954 0.4931956665346599
C -1.6308060685432784 -2.3434295879695615 0.7513670712693957
C 0.13927141828666212 0.4282700400482274 -0.9105174025681593
C 0.9918515809097967 -0.5117076799856067 -1.758999710696568
C 1.4769902045882393 0.1416821358171966 -0.47426681950880717
C 2.4048633287046717 0.33170695496120767 0.40646058175548394
C 3.5054499660253846 0.46924137104573765 1.1305635420878468
H -1.0722027699637604 3.718236606710533 0.18192378059167733
H -2.4334363646562336 0.41319625958920747 1.4032270563172942
H -1.688256658809967 -0.6140006249038008 -1.1641415566293
H -1.4378729444321992 -3.2458424668916166 1.3309628026036766
H -2.6303771788528616 -2.192450702085801 0.3746448504825803
H 0.7971347983625934 -1.5864021120292615 -1.7304556389478105
H 1.3377323756003994 -0.03785587366092728 -2.7063591306065846
H 4.207560467564955 1.2339923909486379 0.9039787080135686
H 3.608528878927132 -0.23002174879936 1.9222375004348338
