10

C 2.9383657755011727 -0.8097533298599782 -0.1955674777432696
C 1.7104488464553143 -0.37591250909122165 -0.15386930455352194
C 0.5828072696217039 0.23333865719018657 -0.1695284603269257
C -0.5651729696433876 0.8539039368934717 -0.32485400156993466
C -1.793213859972822 0.15775687772484123 0.04633709416187807
C -2.10695931771967 -0.9498027555914478 -0.6189621525548694
H 3.7746785064696824 -0.15909937172664176 -0.4846143675231199
H -0.6225703598543108 1.8549837248015155 -0.7158394872231504
H -2.4147205308548854 0.5399194641713122 0.8347019398516287
H -1.5036633600027964 -1.3453346945120181 -1.404316317199034
