32

C 0.5844570497568936 3.028901239209718 -0.13508553976399246
C 0.44118511130654103 2.78661305723422 -1.4358589709477014
C -0.5149043783378896 1.8233998635566657 -1.992354573056307
C -1.0902609118461817 0.9042037149428052 -0.993457303269143
C -0.4248887174752708 -0.1270209113451279 -0.49065822230656764
C -1.0858797609064548 -1.00419470132152 0.515338880167524
C -2.459769497216479 -0.5673636440156312 0.8169530978107895
C -3.4821336057225225 -1.365893665944426 0.599771635560495
C -4.89512910286102 -0.9954399734863768 0.8789934882947237
C 0.946371563092144 -0.4002873907167131 -0.920747894050633
C 1.944865420995034 -0.3602333942313031 0.2158192949945723
C 3.275333136208941 -0.6454342543375156 -0.32495775884717426
C 4.265982783162295 -0.6570070640127916 0.533121050187843
C 5.194141594483305 -0.6460753542752418 1.4748673104932104
H 1.2922380426504183 3.7403165789152397 0.25652289346000035
H 1.0725425258448908 3.337652088685448 -2.1250674255995246
H -0.07704883983517366 1.3158128004395064 -2.860887751847065
H -2.126075658030506 1.117479407706163 -0.6740893158662777
H -0.445384491715553 -0.9491373254466428 1.4340779917536244
H -1.110396073997091 -2.0241977687611046 0.09950705098156197
H -2.645464970771518 0.4157631815195007 1.2209229918309035
H -3.3113860134994266 -2.356115923807168 0.19442558972402346
H -5.23693292416647 -1.4594145135216632 1.8344505692677828
H -5.5417402516671 -1.306947991774601 0.0376225186950064
H -4.936985011413281 0.11363822043937015 0.9314946294953418
H 0.9540248003384899 -1.3811970363703117 -1.4368627778137748
H 1.2665658550818937 0.37275543740793693 -1.645000486625539
H 1.7222664286112241 -1.1664365204261313 0.971317705281414
H 1.8661571263487258 0.5887161889403449 0.7742021395675909
H 3.564188284317023 -0.8471475625357517 -1.3200822851164422
H 5.6379660916697345 0.29884144458374057 1.6332501249846245
H 5.356094395600515 -1.5845482272492604 1.9324513425601622
