12

C -1.6219050001723334 0.08044562446830451 -1.2898679675624622
C -1.4838976609933336 0.04616062042737208 0.0225342811886087
C -0.18702234697213224 -0.03463125202746875 0.7420320046077479
C 0.9170117744138555 -0.5017034341578321 -0.09723195492505773
C 1.96525834464503 0.279141913988107 -0.2786217822958053
H -2.6111860915210396 0.13964995821903153 -1.7222325150432818
H -2.368923711164612 0.07825991583553758 0.639523936559121
H -0.32752956143472894 -0.7502552711570306 1.6013306845233566
H 0.054609719610825204 0.9400211951470867 1.2357824508446777
H 0.875926166558091 -1.4740167892867864 -0.5634914951301652
H 2.7890707532180508 -0.05415295164209704 -0.8972139874510849
H 1.9985876138123142 1.2510804701857663 0.19176199950839096
