20

C 4.50706522360751 1.2331459637432698 0.18184467368868926
C 4.128328061439255 -0.03623475360815598 0.12266912579421735
C 3.1589162372526762 -0.446829281319197 1.1581559086541762
C 1.9011809616718212 -0.13133677900876897 0.8839970882338296
C 0.7517143466348539 0.2600985385681498 0.42460430929438403
C 0.022659708843525504 -0.6381930675283407 -0.4815539271539729
C -1.4453858254424705 -0.3767398992721408 -0.2824877039130413
C -2.3465272532989725 -1.2538244384928299 0.11386525288630606
C -3.688538269728523 -0.6366200680976585 0.19591281042383965
C -3.43714540707219 0.758672705796339 -0.21868917904530275
C -2.1515912970282987 0.8758182199940141 -0.4844590787413199
H 5.20352564253451 1.6761718735525137 -0.500179454228004
H 4.500886859456079 -0.6961901734858187 -0.6172298995335521
H 0.35118366068317364 1.207678375902752 0.6947280286931147
H 0.30242428262814824 -0.5094103907308055 -1.544399119138163
H 0.2331057270713555 -1.6711098686701706 -0.18470298066367405
H -2.134125802941899 -2.2861987303261015 0.3478473977344204
H -3.978204895310452 -0.6161683019061929 1.2768457358692455
H -4.225716314953413 1.504994937855771 -0.27185999669478617
H -1.6537556460465486 1.7822751370333973 -0.814908992160361
