27

C 5.326941924982998 -1.3168657579993233 -0.09702620027709025
C 4.030602502598171 -1.5799938215910274 -0.10496657257816829
C 2.74685607640247 -1.7180095984576267 -0.340132463304338
C 1.8769663207291705 -0.5883631664331977 -0.014431111279984072
C 0.42125251927025226 -0.8559346761987936 -0.23214800836864233
C -0.4148908859472099 0.2743543731187339 0.09662822977542167
C 0.18337949325502795 1.356730175918069 0.5299464431850904
C 0.8352479771408198 2.4105652390183407 0.9748925772311964
C -1.8638678112416815 0.3919803964616076 0.015459021724184625
C -2.425577923793926 1.349012153035289 0.9840657208548874
C -3.120625252098021 2.381913424732413 0.5280946577800403
C -2.5826672726193767 -0.8962367244225998 0.17388917269009702
C -2.564844985703529 -1.7502206101450097 -0.8347961806009633
H 5.750773383109566 -0.8450237049055199 -0.9633491453467898
H 2.441412668674184 -2.663996938613113 -0.7592358313991516
H 2.155450118144807 0.2544776859396555 -0.7142685613467676
H 2.0443777516483093 -0.1750672920714699 1.0011610497993402
H 0.27261197503984014 -1.1156886916826163 -1.3170938309269735
H 0.12946326586389473 -1.8007423378485496 0.31234479714489344
H 0.9657438283582992 2.4261872176588777 2.0171276989082707
H 1.1239357615291792 3.0742856906886487 0.21109139664791912
H -2.2690344021800715 1.204148199161902 2.046451442479577
H -3.289370302197572 2.5465160810602607 -0.5248933145825372
H -3.529639987580504 3.079688922877627 1.2434723424185565
H -3.122199654012029 -1.1783959131638078 1.06941546942715
H -2.0453820418576245 -1.5426443148722035 -1.7697066142720692
H -3.076915047515912 -2.7226760112673527 -0.784024271339554
