15

C 3.1899721178865548 0.36495920326104925 -0.3663280108905076
C 2.2371177316398554 -0.5108269098637669 -0.5683597662869899
C 0.8656654703527019 -0.15411912085467297 -0.20223987302482746
C -0.20608372525385085 -0.9203246074467885 -0.3405714204002729
C -1.391282106190079 -0.22169710015800304 0.13438249111464198
C -2.6304672619229508 -0.6844014123124476 0.1463311887462108
C -0.9081183583470218 1.0826446444718572 0.5862394313585393
C 0.3939065634598352 1.0985498083132479 0.38266823568619096
H 2.9643128501546245 1.3224363659831744 0.05899258532973582
H 2.4567320447258916 -1.4600499881548266 -0.9893605071411494
H -0.1934847039097903 -1.9387496941959936 -0.7562813398713512
H -2.816860771074127 -1.6745421679828434 -0.22578880705825524
H -3.4602981199311005 -0.10842854510654909 0.514145758533494
H -1.5213198006850064 1.8669907162278991 1.0037446067962124
H 1.0202080690944886 1.9375588078186867 0.6224254271083265
