19

C -2.1363262164471126 -1.5639241770001655 2.665790524232792
C -2.8525709270713624 -1.0711912593225044 1.5229916656871687
C -2.052255129911714 -0.6641139094868227 0.46901617837842857
C -0.7021496944643347 -0.9387941944805978 0.5035866256946787
C 0.25601429622109356 -0.52816762755243 -0.5148683737249973
C 1.427629030040144 0.1829952641790991 0.17382067126635176
C 2.5974295728791166 0.3664561036202856 -0.8560849779287093
C 2.229357228173108 1.7182034862509383 -1.4581606695785017
C 1.9210101690709178 2.859985960700518 -1.9907138320898976
H -2.9268938099966806 -1.8652632604611943 3.497277840312852
H -3.899920891558788 -1.1462596328895778 1.6891593789634853
H -2.3423069835179398 -0.14853409063225076 -0.4587211100428785
H -0.4321987728841773 -1.5633172949645007 1.2886599373544834
H -0.2677180231172379 0.32661218515911805 -1.0998156155859347
H 0.6822190560587912 -1.244435632431509 -1.1541741754031987
H 1.0636086756332463 1.2969773375248799 0.3835060156284269
H 2.281645219595136 -0.4071251605775277 -1.638907417989981
H 3.5277931834881997 0.4368215441877499 -0.5338870091806206
H 1.6256340177423105 3.9530743581821253 -2.4884756559993217
