27

C -3.6865286664616463 -2.3700702157487625 -0.04982805490115185
C -3.656280346433176 -1.51425313244892 0.9434103770862233
C -4.517085443782633 -1.6965666658444996 2.126832230832007
C -2.7654939092855675 -0.3761561778336593 0.8754197831000321
C -1.9816150561039847 -0.1815258755639101 -0.1673311243049534
C -1.101003793010028 0.9686999095450454 -0.20394601802778892
C -0.31710751587565644 1.1684395803127292 -1.2404512176202955
C 0.6096926455363791 2.3077466998426948 -1.3657672103246
C 1.660884655566186 2.327211017191962 -0.3288284534466094
C 2.8782642217681684 1.8894156801470834 -0.5262437539382142
C 3.9292233449805734 1.1360104387016823 -0.6749684492942415
C 5.127567048060238 0.6087263817385761 -0.7007174457997111
C 5.258948239717846 -0.8399229135585933 -0.4852514517484925
H -4.351541546782751 -3.2183667881558735 0.0025258224613171638
H -4.65992485939393 -2.7889004218771616 2.272728857124488
H -5.522489531734135 -1.2446350559578767 2.0031703220876445
H -3.9932261131431415 -1.276956892341811 3.0124832692863577
H -2.7398748093182235 0.3272567301432673 1.6904934768581181
H -1.9965182070860987 -0.8757778997002972 -0.9886852000758948
H -1.0533629629246966 1.6934436590023776 0.6010571714875452
H -0.34845505871738536 0.4600893515876164 -2.052106698050463
H 0.061211758660912906 3.258131159410191 -1.4511402959147064
H 1.405557592987868 2.725492378414742 0.6434212487897608
H 6.0056046461971615 1.206723558920262 -0.8740725146305234
H 5.054833601972153 -1.0874077744010773 0.5649962627962454
H 6.236077532257472 -1.244326642551618 -0.8038687702835708
H 4.462642532333606 -1.3625200889792672 -1.0873660606423106
