7

C 2.3009731656916466 -0.07912155937126275 -0.019906253334093946
C 0.9990629877194567 -0.28566455194443185 -0.11813784118862429
C -0.2869824070803736 -0.2157276019689702 -0.06212612773578837
C -1.580385616533412 0.016047639148481816 -0.2248969384881765
H 2.8014362179719257 0.3530684496385704 -0.8959255485748576
H -2.2617278323384293 -0.32985045108026867 0.513665157705245
H -1.9723765154308275 0.5412480755778792 -1.0755893262522136
