26

C -3.0721294241804813 -2.4210822486541055 -0.18320336092790837
C -2.6276968012673207 -1.4198334148000518 -0.9328685805115428
C -1.6902278358080756 -0.40251505314385655 -0.46486028490396447
C -2.310307133118616 0.8803914402170879 -0.1351578412088444
C -3.6190723251074353 0.9787447669210094 -0.04620907187325193
C -0.7033585173983686 -0.862127930926394 0.5011153326465352
C 0.1467426095258556 0.0532485948953719 0.9270167028360192
C 0.9978680006081854 0.99286085764856 1.2225033732573112
C 2.1452511584528753 1.1141789564740778 0.37256244008615635
C 3.0393973807754935 2.055283033993396 0.6328049763073015
C 2.402904399593256 0.24104704005614325 -0.7997360572521464
C 2.5214161092598286 -1.205577943675937 -0.4534849661300954
H -3.754638821664727 -3.1646754110531163 -0.5184131353723387
H -2.9997287860643036 -1.380016515390628 -1.9489249930051133
H -1.6914298309584452 1.7462907851543765 0.03500760471152819
H -4.2352644851460575 0.11056936935286654 -0.21703175724429977
H -4.088424793570297 1.90457935563882 0.19283266119828735
H -0.5425130326315641 -1.8124729572052496 0.9276000279724224
H 0.728632575870088 1.5687318651910875 2.077860492017915
H 2.8749360753154996 2.703901175338424 1.4804610851725122
H 3.9163791738512947 2.170386211587012 0.007537744007230294
H 1.4966582806599877 0.34420579660363426 -1.4670495535941928
H 3.2884782653493514 0.5722875253515773 -1.375708908615327
H 3.5935951261785495 -1.4865719098311767 -0.5095509301804586
H 1.9869251273713715 -1.8584164394254756 -1.1912082310834813
H 2.1956075041041974 -1.4234169503175833 0.5857978099679013
