14

C 1.1945181246452437 1.6988469897500538 -0.8979911243341705
C 1.1414047824575029 0.5005375499082961 -0.3338588180695745
C 1.6168679064668667 -0.3959681882197886 0.8125542562081091
C 0.6574344298840571 -0.8691061175720827 -0.2841603847063919
C -0.6808054867768136 -1.187132480226676 0.20011870594441852
C -1.619617613813027 -0.30024411546819446 -0.05956904625141661
C -2.4889169935796236 0.6384110926654928 -0.3607332578966045
H 1.8015340705809424 2.485019404547097 -0.4636443515809034
H 2.6660907091679 -0.730848059739093 0.7596432724833111
H 1.1884741929962175 -0.06799457878743925 1.7703896759159594
H 1.1064354279718513 -1.647396277842391 -0.9470797618027429
H -1.0230584081209895 -2.0267080908240653 0.7334333207810952
H -2.5862603181075814 1.3998126956941337 0.3658573479019937
H -2.9741008237727042 0.5027701761146475 -1.2949598345930815
