15

C 3.5319258431189757 0.00271135158831101 0.906230027415285
C 2.6439574499334 -0.6198737208557525 0.14796587570202668
C 1.6649728265168975 0.1586235523430426 -0.6267473406723657
C 0.31780318934883545 -0.45428945998233977 -0.6381916611905298
C -0.7783356916929786 0.25841202865338203 -0.43287015307825505
C -2.1010819312746363 -0.31575183421716535 -0.4392106580715779
C -3.159010499654738 0.42316793925667645 -0.2319962361170281
H 3.5296510656412345 1.0828657017561023 0.9495396153338399
H 2.6529637586550985 -1.7093553119246674 0.10982290195410195
H 1.576642330085655 1.1698202949758456 -0.18691379587867082
H 0.25421440698983366 -1.5178990178175586 -0.8220534988685809
H -0.6559001291604151 1.3295698716072144 -0.25191135380288887
H -2.2575920004408494 -1.3703976952419674 -0.6147873734753629
H -3.0477846003007047 1.5025952930099602 -0.04876382593695961
H -4.172426017765129 0.05980100684877424 -0.22329251288490137
