16

C -2.297080126804409 1.5984836260475406 0.19786124452616552
C -2.6674311138053124 0.3641228318586328 -0.11693431039840946
C -1.654523643654127 -0.6720506957489136 -0.03821985655917675
C -0.4096204483721388 -0.4373293774450743 0.3259396722670294
C 0.6133217729613639 -1.5123580385006488 0.4003703360296753
C 1.728319978781704 -1.0855273669227947 -0.4707626172719536
C 2.305563690244979 0.03983290833233726 -0.14761242035791616
C 2.837551354741979 1.184662925890578 0.24371647372122662
H -3.0288172524426606 2.39416355951102 0.1493530205444405
H -3.682986033021683 0.1532736681855344 -0.4174530400928689
H -1.9235385611905917 -1.6683076232789493 -0.28457919348019184
H -0.15007706397723222 0.5778345174532463 0.5731689003844866
H 0.18894483570521733 -2.4821381461505507 0.13977217763097066
H 2.1200730909309455 -1.5711965785530262 -1.3208975791916815
H 3.631033351693681 1.078920689128863 0.931004826175346
H 2.389266168208232 2.037613100192156 -0.188983150888611
