20

C -5.124865309526859 -0.4006364501299814 0.8317577296836504
C -3.9631109343316058 -0.5708858137430524 0.544157907850484
C -2.584842065778224 -0.77056044979275 0.21856391510119969
C -1.6970702689432897 0.16974128456831328 0.44470043987666164
C -0.2639854211506726 -0.031417675366488124 0.10877308849971837
C -0.19180968064836731 -0.2717898006223731 -1.3873486735610692
C 1.1796160640564806 -0.4891510311797778 -1.8678075348936403
C 2.21565692638604 -0.06384739002810329 -1.1646383284960151
C 2.965872522900288 0.6009489393825617 -0.29885656103208497
C 3.285617144105189 -0.07124406551492758 0.9555655110880703
H -6.138118389370911 -0.23443410916769183 1.0815635685876772
H -2.2644232788836143 -1.70579892466779 -0.2195360086872592
H 0.2895246169816332 0.9014612577511796 0.3401726639757264
H 0.15003666414704725 -0.923827235433155 0.6036084054892692
H -0.6735115511019638 0.5771631352873761 -1.9331047395387528
H -0.787765724946978 -1.1787185320273939 -1.6011831672767862
H 3.2830542612131097 1.5780638251571162 -0.5710734299222383
H 3.1392995465502542 -1.1488626767478738 0.9233151800258486
H 4.387998344069551 0.08796497345331422 1.1448408662538097
H 2.792826534278709 0.4078732581521194 1.8465291669765533
