20

C -2.5002213587311712 0.24667957982019986 -2.019344535647438
C -1.8017529550307558 -0.8305523968622011 -2.3326804043200444
C -1.0893464956785714 -1.9304576367682895 -2.628368368564377
C 0.025469321395723235 -2.173059539496802 -1.8937734817406535
C 0.5873334648677818 -2.5918142489887765 -0.7504596843039609
C 0.5780498381046418 -1.6108244017372086 0.27142166354240804
C 0.707410415684637 -0.316475282850416 -0.009467257010575821
C 0.6851313660417007 0.6823907936466633 0.9958162256935822
C 0.7731630520231998 1.9628791352100614 1.0712304488574664
C 0.6717447119033148 2.6204985505612495 2.4497959783825087
H -3.0586180058223107 1.0754135209017306 -1.771700655904503
H -1.246912625021391 -2.701510947520963 -3.3583794497511152
H 0.9266633929735759 -3.5740086736172354 -0.7892275426860342
H 0.47290892694502307 -1.9340025931224782 1.2947122528201922
H 0.8328185078533717 0.007066169134688769 -1.0347496991176435
H 0.5770565168242207 0.16094207974804556 2.040337568607364
H 0.9040872526141264 2.6330044854100842 0.20691096595946318
H -0.10723528433081089 2.1115448992260215 3.0113817503252576
H 0.40973723900407727 3.6762901062555744 2.314350336809552
H 1.6525127184304926 2.4859964008656914 2.9321938877835554
