15

C 2.7571717217882825 -0.6080878681779333 -2.6996913652574586
C 1.7190794067811412 -0.9446998112171999 -1.8921119202990944
C 0.76090419671996 -1.258237053250209 -1.1186345257368373
C 0.48119425436754754 -0.2748712415871007 -0.3764630861216976
C -0.6914354964965307 -0.2433412179056413 0.7285453676433857
C -0.7622377087188085 0.875917817123985 1.2862321668728844
C -1.8889387043126347 0.9565605083032053 2.4374734976957018
H 3.7241741143259186 -0.28987482829110245 -3.480729998228543
H 0.32185848040030635 -2.293571825408897 -1.1196448695827539
H 1.0406548675853686 0.641993423088388 -0.2261101411641417
H -1.17356500458171 -1.1882162175468614 0.7372072788273938
H -0.27960907641099625 1.8037044455661733 1.2239399711612442
H -2.2628279142749035 1.9698426198284347 2.4766905919959084
H -2.5357100981816267 0.1339553066427225 2.2002039317422786
H -1.2107130386682483 0.7189259430655739 3.3234428374537486
