24

C 0.9922318873784933 1.3569885826594177 -2.7710485230607387
C 0.7729204316399224 0.22191387650463437 -2.4374405086526774
C 0.5171737371723052 -1.1821584798573381 -2.046456826057784
C -0.6653836955949952 -1.2066694541023177 -1.1238957489086137
C -1.7292472198611288 -1.858037457749721 -1.4964969025819546
C -0.592336632669977 -0.5132712903784683 0.14267619839128418
C -1.662205040784615 -0.474733540588421 1.0045196415622974
C -1.6090039342137052 0.17821353576815555 2.2271898381877695
C -0.442957563003782 0.8066361267996317 2.583305387042887
C 0.6412353027866792 0.7795865716052551 1.733959126755378
C 1.9248215406053806 1.4472711466646664 2.080767051542469
C 0.5759247646827673 0.12132225140704396 0.5098639337367566
H 1.1789807078363186 2.3520566052013945 -3.0459489581062678
H 1.411567439444287 -1.6024179163176744 -1.546052050981121
H 0.2975685747612896 -1.7535283836491533 -2.9736927804917928
H -2.62811000287227 -1.947916584975618 -0.93106412901006
H -1.734035864104597 -2.3625424504210004 -2.456932796606857
H -2.600362085741477 -0.9603832365196117 0.7548202903393498
H -2.451683551639844 0.1926311996950336 2.8752995266897656
H -0.36615133840064945 1.32376458064881 3.524104138352675
H 1.7384066862181713 2.2835995821549657 2.7971383454186123
H 2.2931860853894457 1.9061692787284703 1.1201304762662927
H 2.679850271780967 0.7772595995450781 2.498449897047265
H 1.4576094991476807 0.11424585720379318 -0.13259059101770967
