16

C 3.5196564618997823 -0.12537729090559527 0.8812753826035661
C 2.5450344379141634 0.15239908086283657 1.2554094441740657
C 1.1713777021623024 0.5213074706589719 1.7970553465215104
C 0.1516505469979501 0.2883797807977099 1.08044434251408
C 0.48909306865108687 -0.4164530692302373 -0.3221638366814097
C -0.5322373161073345 -0.60072349161084 -1.0459668620311031
C -1.8495494296703971 -0.182152301091223 -0.6374604202572085
C -2.9248096113969813 -0.5522100193698265 -1.5764029691135024
H 4.6192900428383625 -0.42904206997167776 0.48051235537898374
H 1.1543017324295914 0.9238862243909989 2.793810637419872
H -0.8357052931988941 0.4738617433461778 1.2146264568037128
H 1.5039050400975458 -0.6917319941227256 -0.3737614484349293
H -0.40196383018780246 -1.1379628078595048 -2.0945249586994317
H -2.169471689935338 0.3754896252568749 0.14565797705991995
H -2.567637808208855 -1.0515856500633711 -2.337746240169386
H -3.8729340542219286 -0.221906190202078 -1.2607652069570232
