28

C -1.0691615853487728 0.19932050533997298 -3.9394297558565134
C -1.3868325508384622 -0.3134988815504153 -2.828501319449285
C -1.7460511919250907 -0.9094949773463854 -1.5762553604396352
C -0.610663409045817 -1.8238140515011876 -1.125344474935933
C -0.985832764840578 -2.425567411192869 0.160106187021968
C -2.079027041272977 -3.173868384045211 0.2304080630901617
C -3.327749649000827 -3.546489803855217 0.12007765177729449
C 0.6510283595049872 -1.0736651479763482 -0.9165753666086499
C 0.7410203509973132 -0.25684733134220245 0.11524207339432313
C 2.0378512312852943 0.4805740204153764 0.2871620630407358
C 1.8728699399985511 1.629449738845832 1.2106999434821977
C 2.0937169616827602 2.8892616241083404 0.8976089375199919
C 1.820484391697988 3.7295393864577338 2.0769238339640563
C 1.4078931713707656 2.771795090533953 3.121267828120271
C 1.445411167502655 1.561754582899039 2.5980716180344627
H -0.8080176155327491 0.6265322949054468 -4.826054263303312
H -2.646392198018029 -1.5709579495076356 -1.6653523567199877
H -1.989666122058021 -0.16848250988701477 -0.7975111825259151
H -0.41864918188059225 -2.5980480499003944 -1.9140161591765696
H -4.135145593071161 -2.9538582592385905 0.49623369894212377
H -3.5350486263724896 -4.476383410057255 -0.369280702274944
H -0.10008381671038631 -0.15110671731612496 0.7824445879578243
H 2.508857563922273 0.7620936253528483 -0.6595363815336124
H 2.728189724568904 -0.26961946096475947 0.7638688405594689
H 2.427736770834768 3.2182220817066876 -0.09853141411590066
H 2.796181183329447 4.191125773066983 2.398233917202555
H 1.1198001498741743 3.0136351883060715 4.153650715818624
H 1.1872803792751476 0.638398433953176 3.144372610013473
