11

C -0.6529105988036439 2.506574534898711 -0.6544196898688658
C 0.09368899472978677 1.7169771684960282 -0.10064433537523093
C 0.965151091297045 0.807803206253371 0.556934411411213
C 0.8604634820716496 -0.49168820065332886 0.596443567304749
C -0.18558154690647066 -1.2713117955607947 -0.034952695449081764
C -0.1996918454213766 -2.58369966720687 0.06459231711776137
H -1.312525904190909 3.202599045771316 -1.147240209005839
H 1.8128851967601125 1.2594832383857253 1.092587792476348
H -0.9715233152575007 -0.7964357572042189 -0.5953441586359415
H -0.9673038620840521 -3.1920312946982126 -0.396530995679194
H 0.5573483077953626 -3.1445062612311205 0.6185739957511949
