11

C 2.3049400533077824 0.8319587247011723 1.011293863343087
C 1.3839491455291868 0.056569372695572974 0.9402700752987027
C 0.2621434353514292 -0.8950918219356819 0.8484131204367283
C -0.9720942796350766 -0.10923943213517436 0.7646540676883282
C -1.4352098014365733 0.2480353987235125 -0.40943771549906693
C -1.7067531832384344 0.4219861538850632 -1.6682214630081917
H 3.1195945688639357 1.532943528881273 1.0693514837561684
H 0.4337081021743729 -1.532662543035866 -0.03574825099081469
H 0.2334259399160081 -1.5267977798131653 1.7854842591971363
H -2.3446623782275435 -0.295707391930004 -2.1446095917139782
H -1.2790416027799802 1.268005791011548 -2.1614498484229516
