29

C -0.9248915564832716 2.3496705045433286 -1.8515843142376127
C -1.0574558454045273 1.5499903957626104 -0.921492004905249
C -1.2073587187595174 0.6536759261513724 0.1585116327636037
C -2.398069463711315 0.5996916490751111 0.6775429258829149
C -3.6425343545972066 0.4531739760133113 1.1215575777574824
C -4.433180578768387 -0.534730869876427 0.4400097944601136
C -0.22160997129127402 -0.211206244664434 0.7675226484071701
C -0.8134542517648953 -1.5421781621458774 1.042053923709389
C -0.6364434348169176 -2.5912632272737497 0.24741973945948095
C 0.1964620822702002 -2.4046119184393384 -0.9672499216376184
C 1.208357499688925 -1.3331858361168512 -0.7813727686327897
C 1.0604302192859878 -0.2936919955741964 0.014218704976195165
C 2.066694823564059 0.726091938086313 0.16891238837100467
C 2.005200877581019 1.909922842228261 0.9997487864443256
C 3.1685742843451394 0.5889590405138806 -0.5074128183049992
C 4.232596597736916 0.41058327994346755 -1.241491195051894
H -0.7933526069320491 3.0355470305328245 -2.644119993341479
H -3.8385127906288217 1.1110639235217679 1.922953605776678
H -4.07613950957051 -1.5560394473794672 0.40253496426211804
H -5.487028109370222 -0.3437789008440962 0.2704152267556171
H -1.431025569638003 -1.7322287440536908 1.9232275664583118
H -1.0795038429379755 -3.5648216920841485 0.46069620451346327
H 0.7583735591439575 -3.374313581701456 -1.1018667819318444
H 2.1373109971773294 -1.4375959538827758 -1.3610024496790953
H 2.5549298007244707 2.7817079418933903 0.54265117750732
H 0.9833833018550976 2.2969798122571534 1.1940162866297976
H 2.4929224975751363 1.7537072608612148 1.9882581619003796
H 4.175172418713051 0.8252180402006141 -2.210183785978942
H 5.0001516449426155 -0.1263369875304018 -0.7544752823474113
