16

C 4.299161120783976 0.521157254301147 0.4576621098067387
C 3.2679838026475254 0.002386196327663931 0.6338554122411647
C 2.039095614621987 -0.6006018923215876 0.8215893481068262
C 0.8568451134058216 0.01218084397451575 0.41095075436727274
C -0.2078281075145764 0.5486943574216816 0.0616203201935322
C -1.532131795893483 1.2385495570552492 -0.38045988814913734
C -2.4619989841605356 0.47134064931337644 -0.743766324283219
C -2.5892686020318614 -0.9175976966569992 -0.8594306422093448
H 5.401760119220756 1.0725154249007098 0.26631450013977354
H 1.9442149377777223 -0.13492564192605583 2.0867285680421124
H 1.9306782808968712 -1.608331060972857 1.2317302751883863
H -1.4175596727642468 2.314870626041501 -0.3760223785623708
H -3.3786359906724197 1.1756488181424816 -1.0711699158080121
H -3.348602274949408 -1.1989349729475485 0.005788969010718081
H -3.1032648568282246 -1.2935468248717024 -1.7988089485870322
H -1.7004487044172283 -1.6034056370071899 -0.6209187535134847
