19

C 2.548443840399157 2.12225667417846 1.317502002599704
C 1.5617802860620402 1.6219924537939683 0.9683222589864552
C 0.39784373357532793 1.0187958623723643 0.5758783100197489
C 0.2413597823043495 -0.3433692321347765 0.08067938184855492
C 1.1970717752007944 -1.1421284041833457 0.34868950162662626
C 1.7531945591147466 -2.439653259773177 0.25646965817129475
C -1.0122601516805871 -0.6219242918742606 -0.7676573729574224
C -2.0890462422057547 0.36323591893611035 -0.45780871929600125
C -3.007725547156101 0.8075941454212953 -1.2340256691748888
H 3.625996171164938 2.685420699607964 1.6899081164057241
H -0.45934363776730336 1.2125149821052406 1.450785758409012
H -0.12174125556688914 1.7545046097724226 -0.20599256511034594
H 2.046246469785409 -2.6866303783439234 1.4258521959916868
H 2.651545873992219 -2.6277795596134124 -0.2866289309624743
H 1.0288581670755061 -3.2463855039565153 0.03602566756254517
H -1.372763256015706 -1.568466232606748 -0.2686003878712293
H -1.9624569563342469 0.774664035543255 0.5836773914249154
H -3.7298028312042764 1.5922088039123767 -0.6994588964030916
H -3.2972007807380286 0.7231486768635325 -2.2258953600966893
