18

C 3.0128535949058106 -0.24018520036596486 -2.3202608517497407
C 2.7548245074611564 -0.3118216251215512 -1.1041590619228314
C 2.4607715317820245 -0.4198061569053357 0.3173019139919123
C 1.222457827020166 0.30692024297722903 0.6449604836475107
C 0.0284077072269735 -0.21877419152124591 0.4116324481251425
C -1.2089847363104629 0.5322396427961203 0.7498692028456447
C -1.839487810134586 1.1776572527647275 -0.4417737148711299
C -2.1456441936667483 -0.33108451251548027 1.5361771901837051
H 3.2344640137295007 -0.16279711575750594 -3.3377615528934386
H 2.289346585995857 -1.4942716157271179 0.6127240661993161
H 3.319195980458141 0.01247936705701097 0.8611685102363131
H -0.032244961799867806 -1.203679952778667 -0.02892979780796392
H -1.1419381867716842 1.226152781466076 -1.3141001911524401
H -2.6934483447312325 0.5365662247039221 -0.7520097751256627
H -2.163909541360797 2.2092277216398584 -0.2685110112538397
H -3.220957433504893 -0.08734742024880648 1.389962431138313
H -1.9377917338551411 -0.12150288819458721 2.621766933392747
H -1.9379148064738945 -1.4099725544966917 1.2934208689275355
