13

C 1.972826686368844 1.6920516467754634 -0.046704509089914505
C 0.9370597594041837 1.342689958286359 -0.6979694656046767
C -0.3652058086687139 0.8966248798053122 -1.5230860806543258
C -0.7472025901313734 -0.19582867857115316 -1.1167389084951835
C -0.20268919798149426 -1.174117402111631 -0.08554942502898101
C -0.3166766462423682 -0.8554413567235031 1.3025979324464003
H 2.8431656635656286 2.0033856359468727 0.5093820464713588
H -0.6706748093458075 1.5189193869524789 -2.26415590887435
H -1.7060729833033692 -0.6538885879405375 -1.6200369442145317
H -0.15297241700301364 -2.1918362336308514 -0.48087665607125846
H -1.3243243258579915 -0.1736009352194781 1.2892073300155436
H -0.7100137227549151 -1.8227203302425916 1.8941564403701703
H 0.4427803919221304 -0.38623798325671654 1.8935736196295456
