13

C 1.1365822227728521 1.1471580674539212 -3.0393325064220154
C 0.6555112868198999 0.8682139481732621 -1.980556011525757
C 0.09996172867420114 0.5241355039019675 -0.7052212034336708
C 0.40952673112712845 -0.5958061905835832 -0.08269767568542505
C -0.16973877555997594 -0.9429679186857695 1.2360233222200643
C -1.1033172292315598 0.1066616966500594 1.7297360565742086
H 1.5591860469768124 1.389246432901289 -4.006803629795187
H -0.5950628217782633 1.2175071356717668 -0.2545135766233354
H 1.1049342128958595 -1.2871135433319563 -0.5385633305669821
H -0.5853997571117515 -1.9767775291664176 1.2314623453608409
H 0.6902899100612891 -0.9703354700177165 1.9668753082655708
H -1.9178730517926976 0.39413795211203245 1.0734651127747927
H -1.2846005038577444 0.1259399149473852 2.8015605984734995
