7

C 0.23659212987359016 1.5969217868883636 -0.015213709638443507
C 0.08435088242809974 0.5331448370306653 0.014385563161864007
C -0.12999948249236604 -0.8986698988075691 0.03059482537644523
H 0.4130508082358292 2.7272009025691206 -0.033262763227065686
H -1.2117509850092982 -1.152616860969462 0.07770650761994109
H 0.36787198853842085 -1.452615829275166 0.8768979661426466
H 0.2398846585586494 -1.3533649373026324 -0.9511083894561029
