15

C -2.80648037870316 0.8935776754335327 2.0793241284431776
C -2.1191533809534073 0.035616541383997516 1.7349806646029373
C -1.2844170300293014 -1.0152502246843802 1.3396385035207587
C -0.012453699964431712 -0.1545132737195016 0.8281310406665852
C 0.49235516203783264 -0.5173323119042758 -0.3096652920701684
C 1.5453930869194257 0.06685213401305337 -0.9567838960899901
C 2.493791375554022 0.36368487835003876 -1.7951646716427303
H -3.6145941879382706 1.8731704994619125 2.4693922093236234
H -0.9962051284789661 -1.7052019042086708 2.049760427170138
H -1.6444527536617926 -1.4811057266683643 0.3541854364123616
H 0.28360798085889605 0.6530362775083497 1.4589365423832912
H 0.060016592426161496 -1.404391099710698 -0.8336782289464214
H 1.711138861098003 1.1260455255104729 -0.17949626563329643
H 3.1122846189738365 1.3364416344450023 -1.5266396135087654
H 2.7791688818617155 -0.07063062505898648 -2.693716618653626
