27

C -4.447205550266132 2.3523910996316197 0.10642298601286006
C -3.27329026867285 1.8945813971894785 0.09961691503195905
C -1.9679479334429781 1.3591852929353223 0.08949242942440251
C -1.7664013718829004 0.2736789652737107 0.7382846735975402
C -1.8014309084048652 -0.8277854804139461 1.4921766501978087
C -0.8476547606502646 1.9351702087504647 -0.5842624540873506
C -1.0555905421946754 3.1072314688362135 -1.2870126942925586
C 0.45992242644663456 1.4383530150206654 -0.6166605287868803
C 0.7397746819342481 0.35467495865772475 0.008897520366435072
C 1.2235831867757203 -0.764856970448753 0.5409297107024623
C 1.5812572991855705 -0.5946963398980232 1.9267126109914232
C 1.2510329192755123 -1.8530310024206658 -0.38635251345810245
C 2.562812346938018 -2.1656863924904495 -0.9757838578641437
C 2.623830301444282 -3.0162530406270767 -1.9832704118157796
H -5.414829734961797 2.7484856205635726 0.10924885515732471
H -1.6255920644424513 -0.6308378051813966 2.5054163780872765
H -1.9938002525982315 -1.6822881175946613 0.9198921030385913
H -0.24005673022364724 3.549511571864781 -1.7922812960581194
H -2.0244709811184176 3.5255449977309263 -1.3006684062003127
H 1.313101623076088 1.8777665923822155 -1.1323927310661979
H 2.558135659136241 -0.025653235325478193 1.9572461711530194
H 1.7586418133167196 -1.564843921100039 2.407608448315654
H 0.8162775584161637 -0.07401999647630136 2.5424155229230143
H 0.7895752278360597 -2.784238020441719 -0.001958574375954085
H 3.471338951050974 -1.7134350422202336 -0.6000435037896346
H 3.5968454397305725 -3.246583158238757 -2.417788822732912
H 1.7121416643390779 -3.472366665952556 -2.3658851805160017
