18

C 1.9505482393478166 -2.767686097258165 -0.6698477598905683
C 1.2159029971596669 -2.2485279952652593 0.11174627298325349
C 0.33623890700936826 -1.5969374254462931 1.055906990655367
C 0.49262141750139116 -0.09914938989764474 0.9575029656747667
C 0.158812961505079 0.4220049820440905 -0.4170715118479119
C 0.3424374257701073 1.8859075061992512 -0.4068531179559255
C -0.8155645111428971 2.423556542337848 -0.7071550814261908
C -1.8469371013752156 1.4245732640266902 -0.9389383346405177
C -1.2691383719669216 0.24888295966818993 -0.7671908930004896
H 2.6166708396410288 -3.252524558555632 -1.3667896551452394
H -0.7300574583019586 -1.9048997389379196 0.9152036829232497
H 0.5929252030450397 -1.8837204270000436 2.0963602522092177
H -0.19802725155031575 0.3917858272411148 1.6679827977334916
H 1.5531924047482069 0.13549773948784363 1.149674093047321
H 1.2557060221716776 2.3950895261345875 -0.19255897115189483
H -1.0121443823689336 3.4908295426320857 -0.7816853907735649
H -2.8760401090462153 1.6374901962220227 -1.1994217938014984
H -1.7671472321341521 -0.7021724536419753 -0.867797868388753
