18

C 2.7924264832640997 0.08698554028125 -1.7452332555749477
C 1.6539870868932056 -0.11751813655691506 -1.3934275447814144
C 0.2672971298869118 -0.3854782486779659 -0.9796358211884892
C 0.047936389275521636 0.2760427809990394 0.3569063636504108
C 1.0463100731090893 -0.338196309546754 1.3278914526679395
C -1.3154500339817752 0.06851178319460584 0.9110077805736282
C -2.416396532145898 0.5969293372114916 0.03895986329430507
H 3.7855304169264645 0.2781817673679331 -2.057943658672426
H -0.3997478919560569 0.001680630916936484 -1.7673917488066915
H 0.07973595371332816 -1.4757884135954935 -0.8961130960434635
H 0.2241126425793669 1.3654569161194496 0.260392186396247
H 1.074455368990752 -1.4416568324128558 1.187169046030017
H 0.794696710486703 -0.1502201687855257 2.376543579633886
H 2.0461815389568545 0.12318972329472046 1.1515197500005134
H -1.5080932895550538 -0.9502671062203683 1.292921211924883
H -3.079324913519113 -0.27031718510673414 -0.20759464344070433
H -2.0599852716306364 1.0395245867033132 -0.9020520670602714
H -3.0336718613001272 1.2929393348360705 0.6426155432671203
