14

C 3.398705783339988 0.37824877001447355 -0.2074013385385352
C 2.2302003809470787 0.68420988807801 -0.422582275900376
C 0.8159101042853816 1.0409809232782608 -0.7046921580183994
C -0.03357239190903794 0.5203890716717571 0.4441809511212697
C -0.9933706486953269 -0.3257495840619212 0.2073950546993854
C -1.8753087653196112 -1.201934045435752 -0.6050222550188982
C -2.094029565373749 -1.2242787583005603 0.8371130882783168
H 4.4124284205018585 0.12762768642612676 -0.02670003204249846
H 0.4703306570081531 0.5157011743854678 -1.6241387311760922
H 0.7010081600851795 2.1265633039391663 -0.7108599901981578
H 0.15694572613070576 0.8562720439221602 1.4469466878667643
H -2.70295477118349 -0.7374979366645397 -1.2052794038424162
H -1.6924728459100469 -2.139555496110491 1.3555944539650804
H -2.793820243523133 -0.6209770414778606 1.4053255210559836
