17

C -2.7407232195788453 1.0178726689164463 1.6766988323455878
C -1.9462116017103015 0.598158229945881 0.8759635991202916
C -0.9533587387838293 0.0732953535885659 -0.09390874306170281
C -1.7090255819235527 -0.9321499710178294 -0.9754622790454445
C 0.1558465259638002 -0.5972956635843732 0.4986954341130387
C 1.3351276589651193 -0.47725489656621206 -0.041816607057423176
C 2.4881694962425853 -0.08355833429653985 -0.478069083599044
C 3.179796507271574 1.0766363246558541 0.048592115004688886
H -3.4445965048967384 1.4051899277469118 2.3758583001798748
H -0.7294653399075879 0.9274903806857034 -0.7624139022134234
H -2.6179413102048605 -0.41066919894030857 -1.3058964855091322
H -2.001784645309396 -1.784560145375583 -0.31337404852500766
H -1.0584680834498459 -1.2935715071183058 -1.7706377159684974
H 0.057170646419888595 -1.1869584831618794 1.3635607665675296
H 2.926561218306411 -0.6349562257632434 -1.2456584567818683
H 2.7887431600763923 1.4144672836064358 1.0499451493911673
H 4.27015981251918 0.8878642566784806 0.11078428374979929
