18

C 0.31076108729436086 2.61788657110194 -0.022180604547102058
C 0.10964750708798844 1.480598095063734 0.3039512151827833
C -0.10286568651205859 0.14221517819287843 0.6814036435224805
C 0.8336421970239752 -0.8410867335245873 1.1116717435439403
C 2.1392649338463485 -0.7100255949076815 0.993553515149459
C 2.8216975009399934 0.4344696448752181 0.41892870801127746
C 4.131439768389342 0.43994513966450643 0.35984752295227596
C -1.3416293416544414 -0.2588072121495907 0.6268771823684267
C -2.5736879409566304 -0.7154360861896351 0.43396665043541666
C -2.8462110370222744 -1.2305070866903127 -0.8522447946113436
C -4.011513570123076 -1.2430201808782462 -1.4519119162301517
H 0.4916373584879987 3.6518209283429695 -0.31399588299161824
H 2.7430294511492073 -1.5406278352864085 1.3671368905666055
H 4.704814387091775 1.2684819553892996 -0.059409195551846886
H 4.690775366875741 -0.3835162668786403 0.726613092725561
H -3.1566981271999306 -0.6097305334299626 1.3085843964891557
H -4.073231670366895 -1.667117027271982 -2.430353552638001
H -4.870872184104899 -0.8355429560500832 -0.9658540610686133
