14

C -3.6678027500532333 0.31103227328268734 -0.4202832159025181
C -2.3055686454242688 -0.12284729295967804 0.03538846350970799
C -1.272217548338385 -0.4454140411664069 0.37535715136930564
C -0.18741959463635022 -0.5760793063335834 -0.7390757842870049
C 0.9904734558791677 -0.05298036851173295 -0.46059685795283606
C 2.306798835218668 0.25180382145102975 -0.4394665774704574
C 2.8724655808086794 -0.2221574127580551 0.8501969344213004
H -4.717853744942131 0.6258065857920786 -0.761802418035867
H -0.659608339760417 -0.17842607122520343 1.3428482118288587
H -0.9317721228949915 1.0514842550314198 0.1766457484715775
H -0.2931255902178763 -1.0562432487878548 -1.6843005704783145
H 2.599845559468409 0.7517952128034602 -1.219921670708043
H 2.3522238302823997 -1.0300417256752679 1.3611729134731438
H 2.9135610722368397 0.6922673111200661 1.509332145805445
