17

C -2.347633373958442 0.4734876972383927 0.5723716878106571
C -1.5887721445989182 -0.28828834834106126 0.19387571639966664
C -0.5904864978262854 -1.2831457276174534 -0.2752714606536771
C 0.7022023203728226 -0.5791286251768983 -0.4706099497775364
C 1.2046709044450536 0.03961400608123742 0.7940063777735853
C 0.823369527901336 -0.45508916995088133 1.978117051618992
C 0.5682340133591293 0.5463638154449428 -1.4737175484151679
C 0.8543493289383081 1.7853423646648916 -1.1193188261167475
H -3.1237015574775637 1.2600741585838056 0.9404702367560974
H -0.955652472827855 -1.7077359907898262 -1.2258528576087415
H -0.5628734001106096 -2.1369841100518605 0.42729103174707794
H 1.4467145047010848 -1.2762202496027746 -0.8660264376827727
H 1.2111752592310292 0.02138933183533559 2.8433386983594278
H 0.14961920941431064 -1.3055459826617586 2.052454017191943
H 0.2638531565806054 0.33841828275162156 -2.4762233004310303
H 0.7709339095843009 2.610730326811893 -1.8017899931605172
H 1.1739973123022003 1.9567182207440756 -0.09311444385445142
