14

C 1.0662824181940636 1.1852592176478414 -2.2751434497238066
C 0.5370443733648528 0.8991497678646472 -1.1667426950603534
C -0.045148064576624 0.5568004305273032 0.06650511432515792
C 0.9870727359942731 0.19212853096170485 1.130170204219965
C -1.1259148718084655 -0.43785703001227 -0.06817831356529507
C -1.3201324607558227 -1.5177922899669405 0.5727723882194494
H 1.5158052396991626 1.4142241843213101 -3.2321569611901473
H -0.5751840894755752 1.528749403738214 0.4693940522396117
H 0.60010618773956 0.5625762921519216 2.1427803910910472
H 1.8793401912893835 0.7938478937438558 0.9236812566772136
H 1.1748967046027017 -0.8946592192991517 1.141019827301541
H -1.8784378591049082 -0.16130104380871893 -0.8489237952386118
H -0.6608331545006808 -1.9141655661195685 1.4025893772487064
H -2.154897349879535 -2.2069605715374783 0.39395310672364
