12

C -0.48773024322702363 2.4211599050751254 -0.19113112024389067
C -0.8413526851148568 0.9072696823557618 -0.2354067712859221
C -1.1245348449228214 -0.2989104451442645 -0.25379080240697177
C 0.24104424626311527 -1.070261376902982 -0.6640259619530198
C 1.178283831163246 -0.7755029775249156 0.5176887032889655
H -0.3417941234830069 3.078092299915585 -0.1626762331393224
H -1.960775432339938 -0.8244886230715406 -0.7278497977279691
H -1.1910784003688442 -0.8192782008470817 0.8457117937645199
H 0.5429593981652336 -0.5344011543837506 -1.5819711861194357
H 0.7421476443419842 0.10022261518029435 1.1718080839588578
H 2.1423438100065444 -0.4596187988874585 0.10856904052508318
H 1.1004867994215517 -1.7242829257439491 1.0934721149344593
