27

C -3.1017894111148157 -3.083729494640384 0.734459127727257
C -2.366330636942016 -2.3188900481525523 0.6845159113193927
C -1.3436630716774882 -1.236796530014535 0.6369230312649146
C -1.4299066317185638 -0.050107763472868785 0.24833723078131517
C -2.5086260694930895 0.6859783247252138 -0.2170121610909043
C -2.4112380376813163 2.0329299162549535 -0.0666080685112263
C -2.6138209884936017 3.303503183196847 -0.29631096826883246
C -0.053755582244952804 0.42149648407926243 -0.1660612442397433
C -0.13424314985257307 1.5552153414773235 -0.9662965672679952
C -0.395430125360159 1.8766507330853126 -2.29025826405968
C 1.2268011368064513 -0.09608761818018986 -0.20472687092206093
C 1.7172238297773383 -1.2718751033298374 0.01913531889114508
C 3.1824592462965535 -1.4863648041528355 -0.10668228224550245
C 3.7864500972827413 -1.183200866005809 1.0021060301125995
C 4.339761531311695 -0.7508632957812367 2.0707981366092088
H -3.929812811482679 -3.964604814006879 0.8086411963203384
H -0.3780486165255216 -1.5905534870113434 1.104281951874428
H -3.3934181003207704 0.34192825662145127 -0.6827319279568952
H -2.489863788750196 3.5846550922271416 -1.3254378012061159
H -2.844985889534334 3.8741593240792063 0.5309437784991337
H -0.481165640328181 1.0944536240063587 -2.9921251119652044
H -0.4893155629348703 2.909408895927227 -2.366518536548369
H 2.0925017427704016 0.6394872758946342 -0.4660538928527952
H 1.213499627762186 -2.2405452191028057 0.23353147746757363
H 3.727312297882527 -1.8450824989490864 -0.8962822701271468
H 3.9890369334465987 -1.1671181909383068 2.9849543450974174
H 5.090367671046944 -0.03404671760575608 1.9844784314995598
