26

C 1.7292677415846813 -2.9066763488268563 1.3842905365076645
C 1.1870270361961694 -2.636553783905208 0.37742084490137723
C 0.5016615517561333 -2.3149235674956175 -0.8460122968352778
C 1.0716682597397107 -1.0066238381696124 -1.4252402811289315
C 0.9937839151563902 0.11641442114378746 -0.5080389119287135
C 2.1274099030078424 0.5731869258999225 -0.05191272723663925
C 3.314131743627602 0.7053566918790489 0.5053859888156633
C -0.16368218234009502 0.7866859039555125 -0.016289494866308946
C -1.0659179088569144 0.419701070240344 0.8615125611019885
C -2.102684989378237 1.4874329067849714 1.0371502300801767
C -3.4491710460094347 0.9582011214610106 0.5455077320659164
C -1.6451706133690585 2.5364652922401087 0.1376277974545697
C -0.5474379826879388 2.148062082263556 -0.46572947627469835
H 2.2675152237562424 -3.1631390163845037 2.342668403639231
H -0.5746830720399697 -2.3543782482505256 -0.8312861664846205
H 0.8528722447253264 -3.0949007063492924 -1.6000289779403973
H 2.0571917461560782 -1.2249145160229054 -1.8309594388226644
H 0.377269152128106 -0.7647552836891793 -2.292251715840086
H 3.82819851863541 1.5704518951531392 0.1592746842082228
H 3.59700597326579 -0.030439215016970205 1.1867870570887997
H -1.0757332031456426 -0.5211482919185044 1.407680376908096
H -4.275108078014613 1.2856936344132803 1.1695469364982647
H -3.369976590067735 -0.150399403379258 0.5209385635517204
H -3.5650655527813444 1.3193647497099414 -0.4988235703160752
H -2.0904937992678785 3.524468538107025 -0.07473542406266612
H 0.02012200826113911 2.7373669860724195 -1.1944832312268099
