21

C 4.367708219217104 -1.6047917824590676 0.021761410787452466
C 3.8368119192901946 -0.5200253709721426 0.20722798208131585
C 3.202235759240988 0.754937548008724 0.4034442185415085
C 1.9054699947572449 0.7556849859249107 0.6364860723297635
C 1.0887974766424604 -0.47442745070586045 0.7039236265800939
C -0.2827986296354417 -0.1511607492581045 1.2432407774314174
C -1.0293336334525902 0.8329947858128998 0.4033570489177133
C -1.530283136178267 0.11913128295762233 -0.8131108428401342
C -2.6935314721294477 0.3809563715148688 -1.3672659676691146
C -3.632521543214145 1.40838791338138 -0.8489361801784512
H 4.831229427377174 -2.5437692473656557 -0.13664490147937305
H 3.735461577275958 1.6782328912424396 0.3672794198355143
H 1.5822730870989319 -1.152062678941743 1.4321007181375862
H 1.0452795409231692 -1.016896357131333 -0.2602198020740109
H -0.8540607820247978 -1.0810274606613808 1.3055392229667455
H -0.14228199320860233 0.21151291865972077 2.29741675677069
H -0.8738032238444424 -0.6391218779449475 -1.222304185667643
H -2.9892115272410913 -0.17515382937055163 -2.2452226251935414
H -4.6366023094290405 1.2775089329552054 -1.2768164666365016
H -3.3091181817369084 2.439444166607311 -1.1105397676820277
H -3.6217205696662833 1.3146275680712887 0.2592834850398141
