16

C 2.834905787454451 1.5993079284789684 1.1639832808397022
C 2.12342694739375 0.7903997677632214 1.0574082433775738
C 1.1213801830864722 -0.34404597286740063 0.8810143207808888
C 0.22323597939064393 -1.183684595521706 1.046655331506727
C -0.9300997445813385 -1.1683147735589905 0.1089768594458819
C -0.6952242031055379 0.024947270958175984 -0.8494071339771501
C -2.0895294510328695 0.7403238743865814 -0.7907199363569437
H 3.5174190757514587 2.393220252221002 1.2534254074895592
H 2.184913584178545 -1.1667042922814375 0.4937355389374512
H 1.1341274363822538 -0.18730523233500856 -0.44813835805081487
H 0.017562637461920022 -2.050648571424798 1.7145057958929597
H -1.6345264129233728 -1.8086253823817386 0.14923882867926608
H -0.6241205663503918 -0.29393437689045154 -1.881567420678716
H -1.9729477188075515 1.750095591148476 -1.1613693986603815
H -2.4070540394419284 0.7803789064699389 0.28272048855365883
H -2.803469498851832 0.1245896218847909 -1.316879760048929
