14

C -0.7150698746853488 1.894316314168288 0.8912822582199278
C -1.0839973447743259 0.8017990524562284 1.1786074521010927
C -1.5455364123781639 -0.5522560779206633 1.5365109562152917
C -0.7340878498787636 -1.5065869537026937 0.7581407739182662
C 0.3341646739204917 -1.0799590923707127 0.11426158544472545
C 1.114343133361948 -0.5966348259107236 -0.830483715057441
C 1.7036005178281444 0.10063549241867158 -1.7521113284870602
C 2.0064444293170065 0.5417948828377527 -2.9710399676566968
H -0.3997620503436478 2.883516153438723 0.6320145751079265
H -2.6407607077021322 -0.6737498318976287 1.4057945403508467
H -1.2747889750262005 -0.7385017149955665 2.615682103253777
H -1.0290510573170117 -2.5326096341742885 0.7263811362065301
H 1.9422091576460343 1.585091811080389 -3.1847080479715513
H 2.3222923599732272 -0.12685557537989767 -3.7634051844144603
