38

C -5.672644590963705 1.4909722423606908 -2.4577981991894955
C -5.080870725772438 0.4976895569750495 -2.312173097414392
C -4.31936731544555 -0.8080171145862601 -2.1432814879402144
C -3.9326655577878378 -0.6982419812500203 -0.6541134547478925
C -3.690084197610257 -1.508018669998412 0.11041215327347566
C -3.4557455651148614 -2.897251142565157 0.6740523181235566
C -3.3531717846378135 -0.638999687249426 1.5693719925618579
C -1.9551831691511758 -0.9968756854630921 1.7968300800376114
C -0.9980718112490923 -0.14012899568393153 1.4385513996287518
C -0.27886533737485925 0.5649039056627511 0.5883935831573892
C 0.2996318060963942 1.3915444503129766 -0.21763734994495781
C 1.5036473766310343 2.146509064277101 0.1896410812594196
C 2.1772422278852335 1.5897384307063127 1.4190931216747393
C 2.619629297741469 0.2195623195039252 1.2279183859810965
C 3.3166368707467395 -0.02938707501955653 0.14999347395804224
C 4.045321107795331 -0.07191250768364243 -0.943182589475206
C 5.318025349825177 0.5852523038982375 -0.8779931007151776
C 6.3057069948016595 -0.12615866286766544 -0.46442175086806153
C 7.351413494721209 -0.8257868484782415 -0.09489566865527398
H -6.2259726655489915 2.4486601390476395 -2.5934397495803903
H -3.452058172146988 -0.8304182230387649 -2.753347685329932
H -4.9747649746247715 -1.658979075855537 -2.1713166539698
H -3.901603040091602 0.43270570498422534 -0.40445959437575385
H -2.8711497204207537 -3.4456606904620033 -0.0656526025876912
H -4.479266987333744 -3.337806685507716 0.8565812303381511
H -3.4538868712410506 0.36389786054836254 1.2477790021520712
H -4.057430333338545 -1.0981099695859755 2.1912604487599587
H -1.6442395901482907 -1.9188056248938088 2.2219672255021226
H -0.094348112295445 1.5699078322761348 -1.2042130525699544
H 1.1669800167106863 3.186888346568013 0.4416986427893607
H 2.192825530742521 2.2786029238777203 -0.6684335450733345
H 1.5141522312010924 1.7507768945623166 2.2706962683061396
H 3.105250300713211 2.258072326410574 1.5625016270688006
H 2.483875610990446 -0.6379513161982794 1.8114374170782312
H 3.57388808229982 -0.5964877988890727 -1.7138354903788913
H 5.526932116609216 1.601997595031878 -1.1394795863725684
H 7.672551787113014 -1.5556541129595347 -0.7508604982870379
H 7.717680316059886 -0.5570300251704378 0.8571422500282879
