23

C -3.9783185753101544 -1.0824138025022942 -0.24656625720364023
C -2.7774785796373735 -1.475672848194311 -0.16569039619173143
C -1.4300026609135617 -1.8906552209291732 -0.0783471065646775
C -0.6190630297714128 -0.7750934544603149 0.6421865879755753
C 0.8272239026390202 -1.1933085291063321 0.6831432163385108
C 1.73483262164228 -0.2836670606911609 0.33263043564293043
C 3.152242583198026 -0.6281513832690973 0.3388441279530241
C 4.072024652542215 0.12307306794624524 0.014782969571681515
C -0.6513137970336208 0.4490228065841674 -0.22616427686705365
C -1.0678870689743238 1.6283887745592427 0.1541049322154784
C -1.0384644432419623 2.769099058236598 -0.7869469100268949
H -5.053188508450064 -0.7097012015210357 -0.3164377525036258
H -1.3426244893452375 -2.7938550565556897 0.6109046803452074
H -0.9724927835191064 -2.1585493193033907 -1.0403126641530471
H -1.0424716526577107 -0.6255609867198544 1.616792237453041
H 1.4464286035223803 0.7233114375849946 0.0696308418661454
H 3.377305771322218 -1.7062348219083676 0.6455349035795322
H 5.0481313627375535 0.35332206659388765 -0.13278543504655935
H 3.6071180220926733 1.2128512467262607 -0.42989755095095206
H -0.28611332190978334 0.28085035792936597 -1.2342512444980187
H -1.4689005405587985 1.7908827609733584 1.1707744406474825
H -0.32206010809655405 3.551174009944351 -0.5871593634717096
H -1.2149279602849028 2.4408880981002294 -1.8249780394193202
