14

C -3.623793106175691 -0.8432272212162721 2.0043725498779477
C -2.656713532788813 -0.6176185088200916 1.3112809968694936
C -1.5139938377765223 -0.35949112964577534 0.49276146333557413
C -0.5185933812391534 0.2188052805332674 1.132199428627299
C 0.7533064812060338 0.623662821781857 0.6726194809120619
C 1.5100629740841818 0.21341821924553667 -0.28818729314481395
C 1.9436591111265886 0.012595316647584499 -1.548938819139603
C 2.928859903676133 0.15381111860584673 -2.429551187543981
H -4.520811896421453 -1.0537106218861505 2.671417735155611
H -1.465313432086347 -0.620063915502224 -0.534003527225235
H -0.7543841092397271 0.4486167329162287 2.2174496897173945
H 1.21532181433308 1.4883508224784403 1.2765070817210877
H 3.3790511965839443 1.0878915349822382 -2.7356655631378852
H 3.323341813912199 -0.7530404495384868 -2.877687566332812
