12

C -1.028313523002761 1.7410871867509325 1.6439156529171297
C -0.6151837737606114 0.6785840860276331 0.44168015085750856
C -0.2200800751178934 -0.3374700796702471 -0.7188207701381281
C -1.1213696516227052 -1.3227811033657049 -0.4121703365987894
C 0.7231424415799935 0.4781971073648696 -1.1729026358256576
C 2.1783634263471057 0.6056541906773086 -0.9017216944377928
H -1.2547968700124494 2.3318503224341773 2.3356534384477072
H -0.7505208214839119 -1.7536950821119262 0.9633238303975563
H -0.8844387552316839 -2.4843258673769184 -0.5392083868104399
H -2.084320936014454 -1.20483257622478 0.09317204440082344
H 2.647273330360186 0.2598808287307583 -1.7601806618360032
H 2.410245208877447 1.0078509877140347 0.027259368950938938
