15

C 2.730577129513281 1.2422014254976899 -0.3008355824289627
C 1.7655938765982606 0.6464141924620884 0.04327483780619761
C 0.5707394252986772 -0.10084190725249856 0.49563196737672005
C -0.327273347134949 0.7558080779287456 1.3403118251200559
C -1.2796340057569195 0.7862253089148705 0.41833269185643995
C -0.5215306995859093 -0.05589659533153245 -0.5413427221364605
C -1.0820252047692862 -1.4349212155621713 -0.7597240074151398
H 3.602227924353691 1.7634526449875958 -0.5987438987015559
H 0.760037270563394 -1.0474384780966561 0.9904807938986393
H -0.13884735673411447 1.1475755224331465 2.346589682477317
H -2.2518997422777303 1.2496317110109605 0.3726402582265037
H -0.22594603027456936 0.4664595361500785 -1.47463065099353
H -0.8201342746620403 -1.7438146225360045 -1.7914344095329273
H -2.164525138781351 -1.4706302105695856 -0.5452548460988201
H -0.6173598263138143 -2.2042253899767017 -0.0923787640064298
