9

C 2.062805703694396 1.3456028690014126 -0.10278119323752141
C 1.1144734084376235 0.5970965284589747 -0.33730562396713615
C 0.02436622517881428 -0.2855361557225213 -0.6244311333072463
C -0.7429570875448295 -0.5465971618690938 0.39562538787429574
C -1.5324471971513933 -0.738698712494655 1.4310847811015004
H 2.8670836388182086 1.9856472248715014 0.07947671745765764
H -0.24118481120542234 -0.750949507531983 -1.5149670852909798
H -2.540063902422387 -0.5602575678872279 1.241104499583755
H -1.012075977791175 -1.0463075168523324 2.307028713364368
