37

C -1.6397014276956832 3.717454619930511 3.572571827486508
C -2.104140942195937 3.098135920633861 2.6535987638023912
C -2.645303410630212 2.344313899380444 1.576410992232693
C -1.9655550258082075 1.5039161310765694 0.78237371950488
C -0.5595072748842882 1.0698519928707142 0.7092115470169509
C -0.23920973949491084 0.07271275126199259 -0.10020751156347854
C 1.0094256164582318 -0.6484414828881899 -0.4572083404353547
C 2.3120891723695487 -0.35758895410301755 0.15890814548380933
C 3.291043407354189 -1.4071262150640682 -0.35103159801569467
C 4.666249006486736 -1.2046727588981583 0.22407960967148718
C 4.63903239278639 -1.2968402267326153 1.7228561876207293
C 0.7009523350060416 -1.5712632402796136 -1.4094642620639206
C -0.6932487455549563 -1.5323312838914445 -1.7102621673916216
C -1.285606281642533 -1.508291791063308 -3.0168228372798738
C -2.5989202430904133 -1.1875913011830674 -3.1276031792281755
C -3.455717515284004 -0.8559115502065181 -1.9255166340160335
C -2.5648017922681965 -0.0946695973133499 -0.962372489848335
C -1.2836685451178096 -0.47164616150563354 -0.9096564839307184
C -2.950480701853837 0.9734424722494058 -0.15453177140919105
C -4.214904106899298 1.5198577796661197 0.12593844744865812
C -4.062765156588143 2.369638522762439 1.1835868291050937
H -1.2044103274359734 4.266693042994453 4.400105686426413
H 0.19264302798048047 1.5571382985479973 1.3066376667827793
H 2.6835780999050733 0.6689908110464273 -0.0015474977631890195
H 3.3282697033667703 -1.292183143060211 -1.4633787683095505
H 2.922241386857939 -2.3934799607075736 -0.04352548611114316
H 5.2985198950315135 -2.0402577562152935 -0.13927992235996253
H 5.14893279749743 -0.2720265493436155 -0.12647414078361677
H 4.209140652054994 -2.2887077538529055 1.9825320107751772
H 3.974619828632193 -0.5415631792739116 2.201211015499604
H 5.65453113282102 -1.2516316537154728 2.140405696032477
H 1.462892619468372 -2.1975196280010154 -1.820891659961364
H -0.7161162670809796 -1.7367486782092874 -3.907061005729282
H -3.029796611769502 -1.1737794485358153 -4.104457173074466
H -4.2181433412586244 -0.12079434092092957 -2.293024784708785
H -5.176145667156224 1.3680960710293661 -0.33706958702177897
H -4.886017950331607 2.914824341508965 1.5877499821478576
