15

C 1.5459730998100143 2.5072879009674107 -0.6944657478303446
C 1.1167762810754802 1.4945436676956587 -1.2094758452385732
C 0.5996772218966142 0.3299287837021438 -1.818597732937379
C 0.548091081971162 -0.7392731484256986 -1.0693544399524266
C 0.4239788502563824 -1.7466916466904734 -0.23051492351175643
C -0.8251476760257082 -1.83047853045337 0.505442702466278
C -1.3731304810513414 -0.47056227587517 0.7095588048451512
C -0.7040195564185835 0.3966008384079408 1.449468641623136
H 1.9026803822412452 3.396057678975301 -0.24553447939256492
H 0.24402681521461955 0.19115011185693004 -2.7973962473387353
H 1.2758523363904688 -2.369902298364807 -0.2094950253968099
H -1.5560369696020047 -2.4981246590631656 -0.009138402608979792
H -2.3135774200691652 -0.22233267310381194 0.2427334581307692
H -1.1164076119719646 1.397459901053885 1.5944152168688288
H 0.2312636463009521 0.16433634927231475 1.91757616762897
