14

C 2.5250144681153577 -2.2648617304798635 -1.7464152188691813
C 1.9220930069286617 -1.511223835548553 -0.856356452561931
C 1.3050169229481297 -0.7174116084218641 0.09731612111817622
C -0.14006121394306792 -0.8366395569887884 0.17997495699773805
C -0.8483572513660406 0.2515432660470828 0.012890657577545973
C -1.5809051944901622 1.2798619713876314 -0.26259748651987563
C -2.0746607316711647 2.0849623277199347 0.8595479512858525
H 3.0209414504971113 -2.8668143344678247 -2.4797353312780186
H 1.7910637659070305 -0.9192229362752733 1.1523926793539758
H 1.5698066839205422 0.3747908698388418 -0.09928198942919074
H -0.6751824323232235 -1.714345863846651 0.36961757645492427
H -1.7600740613552597 1.6575544173784773 1.811323342280853
H -1.8502391234281979 3.173461526116634 0.734796555047327
H -3.2044562895317137 2.0083454884837817 0.8016145687201275
