10

C 1.8221820849965735 1.0869729171208957 0.27580304440589576
C 1.1027675931769432 0.1007024616222887 0.30290068235642065
C 0.23392449582260444 -1.064994082194376 0.3223410782866386
C -1.181750110148947 -0.6302303204400959 0.2786835892554213
C -1.6186780113595411 0.3617908958758588 -0.4793590963198554
H 2.4403718422092084 1.9510187580204106 0.26785226776119564
H 0.40251418396142996 -1.6793561301361164 -0.6062666528174369
H 0.4341382483325785 -1.6676028345802338 1.2130121465874069
H -0.9688471189805936 0.9326588021520652 -1.1280244597138869
H -2.6666232080091388 0.609039532555568 -0.4469425998010555
