18

C -2.6695170238377366 -2.5292782577650663 0.11742399961464825
C -1.8326869917927306 -1.72426403265014 -0.21177492633217554
C -0.856064249611666 -0.7506984964781028 -0.604859578082029
C -0.6921404419976795 0.3144105497771196 0.13877967564403795
C -1.4521449708638632 0.5437163500810238 1.3308293568524139
C -0.9496017316705794 1.4320615865115716 2.166433776844206
C -0.389105446699424 2.2984611961329806 2.9630052774544904
C -0.04838518548081148 -0.9191450502589895 -1.8037594556526477
C 1.2154095272471037 -0.6309456914682183 -1.7798711590963923
C 2.4553222648078132 -0.27947986988143303 -1.9367123877034769
C 3.613378564941422 0.3087550086468043 -2.027732343479432
H -3.3961373687338168 -3.2422380452543798 0.41291265209746153
H -2.361117407385052 0.11124810712387413 1.6530011285335235
H -0.6771635267499195 3.3003630190508604 2.7976372100595768
H 0.2899693803833409 1.8858774366265114 3.679949812474569
H -0.4869986079289872 -1.2821793558938337 -2.7176625722148695
H 4.410308503247906 0.1408896125714025 -1.3406721032804656
H 3.8266747121123204 1.0224459331078362 -2.8369283637125635
