27

C -3.3429506951407006 -1.4380759893921862 1.590831034294169
C -2.5883587410367315 -1.329621286911605 0.6721679843271284
C -1.6924221849154433 -1.2109618271208593 -0.4526845223155033
C -0.26723661898242723 -1.5589953011814182 -0.10314415125803632
C 0.30320349548086023 -2.580592199576238 0.5208641576403922
C 0.11359773338452435 -0.33426201483127305 -0.7327689470781049
C 1.252552200555679 0.12030360060586624 -1.1354610343796194
C 2.407361479685986 0.616790141689171 -1.4675483169207935
C 3.1094217880377624 1.3644937515386832 -0.4654770594876193
C 4.192330242965401 0.8114858660173038 0.017274389619907533
C 5.270360726523366 0.18828562735323462 0.45091369628451905
C -1.2334255219082835 0.2218161679389949 -0.7590322254498912
C -1.5393415095613947 1.1924413598888692 0.2882726555261643
C -2.7518933805692023 1.6863253612322777 0.2912017130247129
C -3.9934942001501605 2.1296086821293483 0.2165961213631443
H -4.019942728964596 -1.543251494189566 2.4233375932467953
H -1.9878500869874407 -1.711569448279761 -1.390328026334127
H 1.3789508150025005 -2.5531449040646326 0.6255034201998662
H -0.22164311277357154 -3.4121812888124086 0.9187558557997836
H 2.708448964973171 0.407620703947635 -2.4686521192204642
H 2.8785482531697197 2.308603825975793 -0.05374174259789448
H 6.149621663564138 0.40839389416614447 -0.09061521732243971
H 5.103018426253655 -0.4454422461298433 1.2801616996552483
H -1.5098722153529704 0.5506330513569039 -1.7863152791844334
H -0.9171850500722495 1.5623136557004031 1.0578091442345998
H -4.112186839518158 2.986802852243195 -0.3837467222908638
H -4.68961290366338 1.562179458705953 0.7678688412217356
