14

C 1.021628811355273 -2.358432263779966 -0.27902037709371813
C 0.17329743120474023 -1.68543116532978 -0.822288704151119
C -0.8426363863808004 -0.8569706536473845 -1.4595322358471408
C -0.5923982098977105 0.5982860223541404 -0.9505014646394081
C -0.6673461867526536 0.5968440664566829 0.4896690802169134
C 0.3462874173683039 1.0509329464683554 1.2572067439128989
C 1.1689301600809914 1.930173712520699 1.7272435654656748
H 1.822260365519707 -2.9698256815270563 0.23338188621240027
H -0.7328902080347973 -0.8595183548736597 -2.5495174069465216
H -1.8546386781384152 -1.1320560648532934 -1.1736242127701215
H -1.4458949936126924 1.1594800939618888 -1.369752068820922
H -1.456484237840368 0.3032103428955638 1.0875127524759038
H 2.151031061709263 1.602105976214754 1.8063823109433907
H 0.9088536533457691 2.9551604473911692 2.0028401310051693
