34

C 1.3334201082691455 3.3384457943750188 -2.123639042018301
C 1.1558022552681226 2.327036901773146 -2.2329240678077316
C 0.8825053539908618 0.8842361362237628 -2.3952349493189002
C 0.496090504327351 0.09092195977485293 -1.2431601669182373
C 0.5470671382889981 0.612176295929089 -0.09755258733530131
C 1.166841310919229 0.9155413833294835 1.0821826745223573
C 0.2900994412787635 1.7395382693370338 1.8553485608465565
C -1.2026950479199734 1.6202851604495196 1.6943843539609804
C 0.6362067464253335 1.7852702915859147 3.262735565366701
C 1.7247430596762852 1.1951174271630887 3.6781499886235696
C 2.8267140039587826 0.47755853626849426 3.9124158019629123
C 0.008259192219258988 -1.211880392269793 -1.409016647009654
C 0.44972685572039944 -1.9272801217301354 -2.3794990766453608
C -0.36497425600497385 -2.8187335996552076 -2.9460547219948428
C -1.7986336431527201 -2.8461856374223413 -3.0523079293895363
C -2.6811390863578266 -2.886592282797514 -2.071540764326636
C -2.459111130658808 -2.178888637350047 -0.9771736542882301
C -1.1827168272807298 -1.6270779986853625 -0.5399007336583415
C -0.8835654581613971 -1.628377419618493 0.6902308131392217
H 1.5380652448763092 4.473917555829885 -1.9812858292533746
H 1.4289023778217498 0.38877454311119647 -3.140222083481136
H -0.22803842588967335 0.9259408997222619 -2.9380218405560514
H 2.1148351926800384 0.5170383947929427 1.1967393680263438
H -1.5833457398057678 1.8265726289939064 0.6997310495770446
H -1.5006510165205111 0.6652734324308452 2.1639439651386807
H -1.6459112350267868 2.432753113615221 2.385623311214449
H 0.0873463411708794 2.2423687008864133 4.079592727050293
H 3.719726173865559 0.9859397119185945 3.7725590001872207
H 2.579249101502717 -0.5217022505126212 4.229651906829923
H 0.17132333461579358 -3.634432238497074 -3.377453204434454
H -2.2057727722146048 -2.8259945027213114 -4.06402509784533
H -3.317591445652706 -2.0058549004129382 -0.40071561226484287
H -0.18425477960700468 -1.4844628190843079 1.3968328998654456
H -1.9185228727161163 -1.847244336619523 1.2696060221723606
