45

C -4.322182876371888 3.267585126962721 0.7187600549381192
C -3.7332634815567443 2.407544078022221 0.08499896402365092
C -3.0096839573284573 1.392729220899959 -0.6831022132386007
C -3.954355573997696 0.6148926359604789 -1.454810660600185
C -4.752269845081423 -0.17338591728872751 -0.7502273235588626
C -5.488016206119786 -0.8954538257593864 0.06598150150164181
C -4.959979573075059 -2.2068770188496263 0.35993097054064527
C -6.698473394476369 -0.2639076833796557 0.5377041412040691
C -2.260573219659971 0.5322757673021515 0.31755649830253074
C -1.3495096689613593 1.428892718271383 1.0426375001910209
C -0.046534483916344 1.3495198152061123 1.0948226942444361
C 0.666511669483502 0.3051472376419964 0.3991783886519605
C 1.9933490803013043 0.25295920469896077 0.4732144232572426
C 2.6917995133361905 1.2828878238724972 1.277148507688316
C 2.676230478361523 -0.8178000744562333 -0.2435520126984739
C 3.973377685944042 -0.9965984956180596 -0.26304021167805713
C 4.523805203671553 -2.142724791662907 -1.0456263163374049
C 5.969485602855231 -1.9500778841976893 -1.2914525685164007
C 6.434804689855118 -0.7359802313284018 -1.5055957303878762
C 7.893709163826764 -0.5141860446124189 -1.756879889400316
H -4.82002755324667 4.027081004316004 1.2700487402714251
H -2.2544472852065907 1.9343295844055546 -1.291644808001773
H -4.15226086298738 0.5354520556105058 -2.479500888126103
H -4.38764613360452 -2.1914437569013314 1.321580730514818
H -5.831414637520438 -2.8986386409780103 0.5558997061139389
H -4.381214313137163 -2.68723468815487 -0.44013077600962347
H -6.947673010453043 -0.6877470711625735 1.5518092779588033
H -6.647345350930964 0.8289731601294188 0.6854982526900586
H -7.580786914866358 -0.5231279611805144 -0.1018951031535727
H -3.0152063903111093 0.18438275567039256 1.0908534008018949
H -1.7794558250875567 -0.3060541215108153 -0.17733563514314235
H -1.795367398086423 2.2728701279011636 1.6156793621433652
H 0.5275240627770486 2.105020108810702 1.6903129932476078
H 0.13838847385222466 -0.41976159756519027 -0.1707297909443891
H 3.77442473402982 1.233540755484538 1.2113761413513435
H 2.3290701456945317 1.1460199858309204 2.335442749666218
H 2.4008617802022583 2.31097272557555 0.9229085907288267
H 2.0537912431004166 -1.5178895563001975 -0.8027302491106979
H 4.626057426405344 -0.32103182346510656 0.2814607160972063
H 4.283517937904593 -3.1097040056165395 -0.5788562480572402
H 6.642978920280835 -2.791837696327893 -1.2968072618337756
H 5.808786059823058 0.13610749967367997 -1.5111339147441507
H 8.055438864374665 -0.3589946910734576 -2.8534998414662214
H 8.47282577063314 -1.4037936900117858 -1.4401956257486366
H 8.230949449262285 0.3650678751562182 -1.1788346662714175
