20

C -1.3958704244059303 1.8763631655291169 1.8498538554642328
C -1.4018346831445792 0.9677462099234526 1.0595252264958908
C -1.4313606457116916 -0.12212353849513613 0.12634581079821655
C -2.5352710045682687 -0.8880868020661122 -0.05821707526596052
C -2.195004804625813 -1.879682934934314 -1.065514261417869
C -0.9515447704901825 -1.7196880369011585 -1.4665550187771583
C -0.3667142917028383 -0.567765342927795 -0.7221873643564617
C 0.8488838743421794 -0.12090724560390424 -0.8724167077921146
C 1.5062883108449434 1.0027437999927382 -0.20037560768526888
C 2.7127159126501894 0.540132588974397 0.6149748551098078
H -1.3819864597968463 2.686169647535807 2.5327325143499086
H -3.485462806813372 -0.7737012481322867 0.4535684679796141
H -2.84841900300357 -2.6621082984240987 -1.4601640003346645
H -0.4164309704366637 -2.297581484462504 -2.199570856013332
H 1.5082987675481165 -0.645805805238136 -1.606823224932431
H 0.8730278898056422 1.6780769889789293 0.3692624211682843
H 1.968794794853429 1.6221371776757032 -1.046971323026829
H 2.4640296155589323 0.5917709804070359 1.7155280428840949
H 3.582540935782608 1.2179316375009988 0.47575321946083493
H 2.9453197633151076 -0.5056214593318091 0.33635893618632234
