21

C 3.9422812018085502 -0.23646878523500098 0.04861602061298327
C 2.786785909217023 0.06302404070212005 -0.09017214484426314
C 1.4010378504028755 0.4375013092984297 -0.2481895501059945
C 0.3785391677910944 -0.4212549324850787 -0.18874412260760612
C 0.5357746996454881 -1.8817263123291268 0.04910527898569224
C -0.8498216790370425 0.32541347016154887 -0.39313671550783996
C -2.080930811647892 -0.11475406934234096 -0.4132610231742192
C -2.5571916144336337 -1.4797898796252476 -0.23531730237802337
C -0.4496149619850288 1.7333428184623891 -0.5826648766766581
C -1.3846367980435992 2.870644699331488 -0.826598752119544
C 0.8683559949406671 1.7625723632662866 -0.49212943662925057
H 4.9791786355869325 -0.4861655680309251 0.17416760422170083
H -0.10974183978860383 -2.441897600303076 -0.6587240388132235
H 1.6195681154074963 -2.168534270770963 -0.10326455932304056
H 0.2525978004652395 -2.0580038704104346 1.1218264391343715
H -3.6784904876743374 -1.451256447959121 -0.11095044300971872
H -2.0824636538111783 -1.9862449168186844 0.6174766290503161
H -2.396756128856897 -2.028698207222334 -1.2100343543290573
H -1.829639303347261 3.1864952181043606 0.13697215144945438
H -0.8373396094488619 3.7158316207825846 -1.3046559467494763
H 1.4925075128218195 2.659969320424601 -0.5862527862554225
