15

C 3.181484666018796 0.7590462635684151 -0.11307997829491684
C 2.0637370363774297 0.758571700914613 -0.60165867035533
C 0.7413995876073771 0.7678232863816435 -1.1857694865274677
C -0.2579507462566538 0.11039384129838886 -0.3009556256168509
C -0.9810178741105001 -0.9464097409670744 -0.6184135125648876
C -1.85425058107252 -1.300097939789891 0.5185083874502994
C -1.5353872081401616 -0.29481981004717867 1.547131183226726
C -0.6155378600625626 0.503804742872244 1.051589329996038
H 4.152249769606543 0.7779364246812889 0.31223138002262024
H 0.43155055230134565 1.8453620600441027 -1.2648528555630054
H 0.7190506261714527 0.30165307954992787 -2.1926030252678297
H -0.9236895425948639 -1.462820972660882 -1.5821691429229483
H -2.9166216388683575 -1.322126482828067 0.25808288303822563
H -2.0041996329596157 -0.24955058053241524 2.5450072658318543
H -0.20081715401591435 1.3485738559885723 1.626951867541917
