16

C -1.9746333290244762 -0.10688491499790499 -3.738501094879595
C -2.0809361239440847 -0.29769359785544 -2.6004639297368874
C -2.204325666986917 -0.5692632092249259 -1.1102461200571625
C -1.15951320186287 -0.2758450788515431 -0.3916115134942846
C -1.062671788686895 -0.45703757655011545 1.075241081348687
C 0.043162453110654 -0.10100732862297637 1.6156070196736516
C 1.190617480899616 0.4326031877955255 1.0724767838953357
C 2.2692903161252533 0.6106998266514574 1.8186547231924273
C 3.3444818265856315 0.5666849894381631 2.568030485314695
H -1.873946475138013 0.05123921870067988 -4.79578902341294
H -3.0863400861618597 -0.9883339919744093 -0.7134617677073671
H -0.28546248648009226 0.10086578429249235 -0.9233142526692859
H -1.9068749231804627 -0.8533218995679326 1.5656902607804994
H 1.3793377945619283 0.7610835275470895 0.044751347017664075
H 3.319550787435823 1.2573326711763901 3.38685821489991
H 4.088263422202542 -0.13112160874742296 2.2747036566188976
