9

C 2.372833460760632 0.7988095697563286 0.49058999146452664
C 1.1141032866475178 -0.02051487691013218 0.28170395932581016
C 0.03732967030154715 -0.6973668737890684 0.09362341363014218
C -1.11680024825991 -0.08127329801570249 -0.5546414420484586
C -2.2396693839089292 0.5127381720266925 -1.2104112928536799
H 3.055879576753225 1.2497727159966527 0.6042307546854958
H 0.14395392494015632 -1.756662396620992 -0.3192777895507823
H -0.43850969402711654 -0.8836231423280517 1.1807214727728639
H -2.929120642252051 0.8781201831360305 -1.6107712033206818
