25

C 4.171109878322066 1.1746183638179237 1.1728864576722664
C 3.8113252788420016 0.13519934534384548 0.6858856532962988
C 3.350383386368932 -1.1349259889144256 0.10391572799387545
C 2.820977882469435 -0.8701088931235138 -1.2312240137719632
C 1.8745524426798077 0.039051893511945775 -1.2999331539435202
C 0.8570607608728211 0.8565027665383462 -1.2589703338788318
C -0.44562369732249274 0.2603884838731333 -1.0408838493981256
C -1.3719611314587037 1.0389918121592328 -0.5412601915323766
C -2.198808779447651 1.7328505225436095 0.17836194158673727
C -3.0546164654813426 2.2323487746764545 1.042815713936281
C -4.420811418172412 1.6778624653453267 1.2157628702442818
C -0.7508013258839531 -1.10609758308155 -1.3413172025754643
C -1.3693952267171807 -1.7991613545010208 -0.40501708286415217
C -1.949653978874021 -2.3968003353711196 0.5960515704377437
H 4.471838310020738 2.0859728929297585 1.610912175925737
H 4.236463240795154 -1.809189499290228 0.09016319840147617
H 2.606243443725456 -1.6387938220478664 0.7687846843854163
H 3.0724448630293857 -1.2922100190204275 -2.1633892129948227
H 1.1173608169541254 1.8656661650936623 -1.390802950704276
H -2.7816256406293167 3.0787508241186314 1.6650845006445887
H -4.8500907163268865 1.5472516318662457 0.2000760793780269
H -4.315254595559635 0.6855904176425844 1.6788039888740534
H -0.555873010650146 -1.6660918328874676 -2.215550440564388
H -1.307906572976115 -2.866144943515748 1.2955187652491922
H -3.01733774458448 -2.3347940516263472 0.5833251042002792
