14

C 3.239433344449472 -0.8990076439702304 0.9024468320901925
C 2.14006614909582 -0.4993279183239841 1.277213973546641
C 0.8823498649174767 -0.05017231504467516 1.7159384836397513
C -0.147293520968751 -0.452847027250168 1.0250866109499575
C -1.14175392187812 -0.8293589132056854 0.25176394706352895
C -1.4267936743273142 0.056793635592323394 -0.8684796477725514
C -1.3296470609224877 1.5045376693253083 -0.4407419299767787
H 4.193587713001393 -1.2413419553493281 0.5954829936724657
H 0.6485130221356203 0.573799290178653 2.531716691623733
H -1.5981272849547703 -1.7307370555122215 0.5519309797471336
H -0.7454297984394792 -0.14321040281896893 -1.7301860692144964
H -2.4512933809175093 -0.18653276544547223 -1.2441545962377316
H -0.255526889604073 1.7938815025683366 -0.5770914352411772
H -2.008084562142342 2.1035238994878833 -1.0575132537090328
