15

C -0.20100592218851818 1.3125678287390656 -1.6945617355131155
C -0.6860731316265103 0.2220139083697371 -1.4269734359405284
C -1.2671354802935533 -1.045811715865788 -1.0942515470231062
C -0.7394450994687988 -1.906122200973155 -0.29451411031669966
C 0.5324308923331615 -1.6581098075392073 0.3610998794593133
C 0.48513106575203613 -0.7915512993992976 1.3601044275344851
C 0.4427437098878907 0.2920997287184101 2.093793283398631
C 0.7987157017809995 1.5996514045433898 1.5189247998020385
H 0.20538303095482063 2.2578029760126945 -1.9118796009189056
H -2.237962296147305 -1.295402028705105 -1.5708154896717323
H -1.2924172480347418 -2.847212846398865 -0.1152424256057725
H 1.4741206483322946 -2.107015028467225 0.11560661861757224
H 1.4704541302054541 1.5898654713075775 0.6675973686484805
H 1.1924813739424838 2.2884725408748787 2.3206757755813276
H -0.17742137541039313 2.088751068790346 1.2241904615620576
