23

C 4.955724033219078 1.280343886719075 -0.6801407519875845
C 4.2073366293576155 0.3379419261708485 -0.614625703441477
C 3.2994474862831864 -0.8223506696757765 -0.557104626056711
C 1.931638994132018 -0.31709723959526365 -0.36848270920656
C 0.8656313198372623 -0.9766724066724757 -0.8059906817191589
C -0.47690537317550297 -0.4068585453972939 -0.579852198726323
C -1.3707405258197958 -1.4427557074008084 0.013312921121044593
C -2.7313696267780183 -0.9829063604986719 0.27927486160720233
C -3.034354555109182 0.29725512985795066 0.13310615551115892
C -3.203439164672581 1.5863334601744536 0.23108396664755548
C -2.77695171831121 2.228128749116202 1.5055792684342628
H 5.609406359829938 2.12036289803845 -0.7409654048277741
H 3.651181497483159 -1.4232700022767053 0.32671736242057997
H 3.4228298794893237 -1.4656628767142161 -1.4337448298721347
H 1.0095175608415545 -1.9009686807067916 -1.3091625396026492
H -0.8759000651988252 -0.13182854474217215 -1.600360719014769
H -0.4587077095188026 0.5162454497214543 0.028049135331672248
H -0.8635886802107017 -1.8656622201565232 0.9024208048807907
H -1.449662541797004 -2.2768886132719786 -0.7452551053746751
H -3.5308534167041645 -1.6218399631954705 0.5973622403620706
H -3.212592503409224 1.658940045722031 2.3287690353641177
H -3.280644200043882 3.238168793163921 1.517658785072863
H -1.6870036797389694 2.3710414916099394 1.572350733077434
