23

C 3.9816955163141086 1.651020639533601 1.6391119736756334
C 3.0509449615397566 0.9061462053670452 1.4650049684124913
C 1.939328180410623 0.04477004684862023 1.2489558147008757
C 1.626941657995779 -0.9087741588284157 2.1108221884231733
C 0.4799019714772916 -1.7731562354941086 1.8435503541182994
C 0.09963422535426741 -1.8354988799387837 0.5784156447398284
C -0.08476178894071652 -0.6546532719045152 -0.03206858383794914
C -1.342382738064666 -0.3374642355626659 -0.6328140319363955
C -2.343980788004645 -1.2243263821342185 -0.723687382008119
C -3.497940334336696 -0.6055161638601587 -1.3814372229602898
C -3.074122711796469 0.7677435154022705 -1.6515296614353054
C -1.8305257341300463 0.888491599329172 -1.2118113140927604
C 1.058233553154924 0.21453596295885113 0.08598696291503599
C 1.3163686602082374 1.0974850978066983 -0.8172239944470723
H 4.793608993806532 2.3218481844190624 1.7842669728622305
H 2.188996631825592 -1.0799039015426573 3.016534436176452
H -0.056450189236050954 -2.3380720058818083 2.55972562568011
H -2.289676533200304 -2.2724128314940644 -0.349713355614075
H -3.8693663498906443 -1.149734306095003 -2.2630069586442665
H -3.709003524599014 1.5164121178098742 -2.1314538496983704
H -1.3385820229587733 1.8471227146663458 -1.304743619056955
H 2.195524991028068 1.7133008056798722 -0.6953979297867144
H 0.7056133721244998 1.2106354828344317 -1.6920457499354336
