23

C -4.409935483824104 -2.77979206542358 -1.5269696920287024
C -3.292689782011031 -2.3136281298937225 -1.7111000401489258
C -1.9658249910439964 -1.74386002981958 -1.9516354812699388
C -1.5105075960909933 -1.1173322782856214 -0.6866472434670291
C -1.5099651021021878 0.17758393967620856 -0.4732471050382582
C -1.0352412277160856 0.7173623009597281 0.827053440695152
C 0.38311102679690795 0.22956943502788962 1.1314921032420338
C 1.2402068431222126 0.714900085964815 0.03177175518810593
C 1.9945032847451685 1.7593233688959722 0.2564270943061527
C 2.93928413172073 2.6587756077690927 0.48918416041893725
C 4.1487672680223495 2.1025652826551084 1.193732376754551
H -5.374142997867366 -3.183074699633181 -1.3865941992234931
H -2.023786841885521 -0.9873074869067969 -2.76440575483382
H -1.2773600872806958 -2.547522545637645 -2.218621504751128
H -1.161634613480525 -1.8101623516004617 0.09061980962231037
H -1.7318250306043588 0.41227292839094215 1.6595554963338786
H -1.0643136547267837 1.8245061926966029 0.7803519798302029
H 0.6995249526862769 0.5354807297521642 2.12763752144946
H 0.33423858735391626 -0.893189246894415 1.1418401865936632
H 1.254363741825896 0.24037026838057937 -0.9070771136957544
H 3.8709024614442122 1.4181596883152612 2.004558469571279
H 4.751104108721099 1.602572882299469 0.38842572978706896
H 4.741221002207584 2.9824261232968974 1.5297321347687862
