14

C 2.9431125736073818 2.440652477110998 0.39910401309991816
C 2.1230031132774703 1.5342926650941244 0.5231525394960531
C 1.1890446034932325 0.4665453401683069 0.6713981286615258
C 0.9584788511019435 -0.8886553879504868 0.38175152266337803
C -0.07096944835463312 -0.1821531765441984 1.1092593912365152
C -1.2951756136725574 0.23020683205074646 0.42862875129493194
C -1.825437251804125 -0.6198379147046762 -0.4053631497155218
C -2.271101383555344 -1.5510819861603968 -1.2328036193069214
H 3.6613912696925004 3.2136526383809914 0.30397512792710174
H 1.3560786872863113 -1.7719898250227875 -0.08187783895313115
H -0.09124943292264254 -0.29977512222028635 2.2335780335933375
H -1.8374826940249218 1.1473144235841937 0.5124707082488804
H -2.9408159938983838 -2.238869804661784 -0.7848017513505313
H -1.898877280227631 -1.4803011599602478 -2.218271474968324
