11

C 2.8233059962708333 1.552911694513343 0.3814839465584048
C 1.9512227452587239 0.8939823092932736 0.6010640614045651
C 0.696874478293081 -0.024270087678600456 0.9173888941680173
C -0.07222648863407086 0.2272909857276572 -0.12958913321623633
C -0.7586240371163561 -0.1316714481762353 -1.2474159193724927
C -1.9476040513888295 -0.9113336480428811 -0.9526431475600724
H 3.625426373833332 2.177329014611199 0.18235036028841026
H 0.76924057842095 -0.5726830926133213 1.6467644494803808
H -1.8233252633298094 -1.9503766121704043 -0.6202179123517294
H -2.554755678908417 -0.4921391644354609 -0.037082273953665645
H -2.709534652721726 -0.7690399509891379 -1.785401813958936
