13

C 3.1450166578628505 0.09611488268336459 -0.7478414663367288
C 2.0254097917209113 0.6723644056226121 -0.9866613295180547
C 0.7220976347997079 1.3196540495187075 -1.2723073456568101
C -0.20935484581321864 1.0671177938692384 -0.43610056442293577
C -0.7978405355527943 0.6103165591875818 0.6683414248634174
C -1.2968793573317818 -0.7897677983029733 0.42839041472167855
C -1.8334523284879962 -1.3367810028273792 1.4723673471114587
H 4.028293241203965 -0.37389540982904007 -0.5495377543035673
H 0.5359059177096359 1.8812596214743065 -2.1181834222457256
H -0.8614549780249201 1.1860595898017787 1.4815934471123713
H -1.2861797908443826 -1.2750388094901492 -0.5134283001078631
H -2.2489103600192597 -2.3104074673166077 1.5579011579103252
H -1.9226510471941922 -0.746996414286501 2.43861337864216
