14

C -2.929277515257036 0.5775100713931147 -1.4115689716229214
C -2.0503591297127093 -0.13804971719528486 -0.9985858842376361
C -0.970123697957508 -1.005387307594885 -0.5178274446184893
C -0.5781398751793052 -0.8540737396153271 0.8924357872663158
C 0.3258560483434114 -0.30159065102215665 -0.12203303589091422
C 1.3861084074427446 0.3146830588344161 -0.6468703076225611
C 2.470678657465171 0.8806953559673762 0.165880056058312
H -3.7135577716462493 1.2096186034382077 -1.7976447976355265
H -0.8473426961027316 -1.9967763163891463 -1.0120780207570819
H -1.0721157215963284 -0.09073957437950017 1.5308521531568386
H -0.2756799038223092 -1.7805550121530305 1.4183488206726498
H 2.284379593926022 0.7016340554462227 1.2634255827775636
H 3.4716881896896883 0.4983795669432496 -0.13606172595841695
H 2.497885414407011 1.9846516063270674 0.03367258350175577
