14

C 2.9759878822794854 0.7108809254675768 0.8622639650126903
C 2.1534664970713235 -0.08975171858302003 0.49429959568061466
C 1.1618463795636649 -1.0543102940557927 0.024067887474708886
C -0.1480169840561696 -0.3682375451769048 -0.13252736327979775
C -0.7686982849866971 -0.3062252773513386 -1.2784106890023326
C -2.0357858995533245 0.36271308798331336 -1.4083687719170839
C -2.6256012751276536 0.9352076024001248 -0.4053407636105917
H 3.7067545501771595 1.4241186881413463 1.2093122925276159
H 1.433637251809974 -1.491592560849271 -0.9584627337417653
H 1.0054955544094708 -1.879658585444386 0.7481867696231422
H -0.5828607911670489 0.08431814105646955 0.7311890303213247
H -0.3675509226756746 -0.752602920442689 -2.192912622884271
H -3.596201077494271 1.416662831117628 -0.6309871767247942
H -2.312472880230163 1.0084776257217767 0.598469806775416
