12

C 2.2244640398023154 2.201968422043416 -1.4878176699568133
C 1.392992102673003 1.9807116676195617 -0.5419199726676082
C 0.4617298346367617 1.7508076131170434 0.5307927996327876
C 0.29361702905085846 0.590906007371249 1.060637222212862
C 0.03883892215855024 -0.7252361511331407 1.145553891373575
C -1.0225291976550617 -1.3175830311779082 0.3458032904800884
C -1.3872942721133759 -2.576996461032475 0.44767762022247093
H 2.882619424875353 2.369850888994205 -2.2295341686718975
H -0.1629662981100352 2.5871795254952223 0.890779627796515
H -1.5362657427545923 -0.668749769951708 -0.36605031542818883
H -2.2088310521962233 -2.890135889668015 -0.219148448689058
H -0.9763747902448549 -3.302722821902779 1.1211625601546318
