11

C 2.256118884945538 0.4071639532955798 0.07488268058734915
C 1.349568968366818 -0.38164523346416623 -0.03903029901685114
C 0.2859115886344386 -1.3181431566238626 -0.14989533754726841
C -1.0051545702357878 -1.0666917345073612 -0.1305434470499412
C -1.5895498430648387 0.21319168611083106 0.007563543836608334
C -1.167896595732696 1.4125498028821266 0.1438862841062295
H 3.0535886065379083 1.1259284056514582 0.17795236689048494
H 0.6399352520418555 -2.3747128655862397 -0.26383828813474863
H -1.6839564156531113 -1.9727708068393945 -0.2357766260703966
H -1.9871497666090188 2.17938034482748 0.22345396911513166
H -0.15141610921998827 1.7757496042392735 0.19134515330075494
