22

C -4.061563884165567 -1.7369090087522305 -0.9375203456866155
C -2.742215946597965 -1.7411073845699734 -1.0167451500364115
C -1.497553069631135 -1.6014501254477282 -1.3287662951980392
C -1.0429015283486451 -0.16832089535192657 -1.3187214307822637
C -2.019683563485391 0.7239639747271635 -0.5677408840839743
C 0.24333862806744852 -0.00040637050764991134 -0.8364911651676744
C 1.4682306048010132 0.1610065256239695 -0.3979883297110052
C 2.85411274181396 0.36754375462817523 0.10936927909437041
C 2.8785266188498735 0.4776406851811584 1.3780090142264214
C 3.872559692056842 0.6900860508539847 2.443178143376181
H -4.3289721258964695 -2.135915093443007 0.03867406397252344
H -4.637794648073582 -1.3845215174421615 -1.697052529978622
H -0.9182727224366701 -2.4087462324313234 -1.5851022680017237
H -1.1151256227711412 0.15100981335395086 -2.416966195395467
H -1.7673555861535255 1.7969179184483526 -0.8248361074283249
H -3.0645308443099752 0.5009205526551183 -0.8984977860932543
H -1.965076228966647 0.568903605722973 0.5091881329253537
H 3.6444795322222 0.3934706002469034 -0.6022819849401602
H 1.8272038759007811 0.3639979246994482 1.8311907335483122
H 3.9198110678486446 -0.17788734776242288 3.1196158221910197
H 4.880307497005841 0.8720854496667455 1.9487805219934689
H 3.5724755096164174 1.575473276894641 3.0507047633182904
