48

C 8.55118730148284 2.223329975927071 -1.2861525966336058
C 7.46340428494175 1.6422876877592552 -0.683144192147286
C 7.417373733904351 0.1889001079219649 -0.7805418016457089
C 6.499759328452999 -0.5838508344351283 -0.3111288764039838
C 5.278032590800742 -0.3023047622804669 0.41342108751784123
C 4.8903060846339725 1.1024828476185438 0.6644536949224309
C 3.5641041824838435 1.1034663073983857 1.4117603317650254
C 2.492306372417331 0.7577902057980641 0.7308567062127741
C 1.4821985308336494 0.22641960573202763 0.14029920341858987
C 0.5852800116335625 -0.27705052734890323 -0.6649718787327158
C -0.7888522821442099 -0.4581022336086848 -0.19541692181091475
C -1.3496354990651147 -1.6748237812979274 -0.21696507424911074
C -2.6631034035373777 -1.837040373991862 0.2309762498550292
C -3.449960007518232 -3.0024191977158 0.26426559063699395
C -2.95797934819977 -4.380233033215721 -0.1081105659589794
C -4.671098144767528 -2.701368795869648 0.6690518786481058
C -4.795507337465176 -1.2452812526341879 0.9361249432467597
C -5.857373558147325 -0.6232849229512624 1.3465793738524707
C -3.4664640524562222 -0.7005841427519839 0.6354528014566287
C -2.922493392942834 0.5139620096257485 0.6404618028311371
C -3.759451232313617 1.675655251502515 1.058506449570533
C -4.4213917980214426 2.1395175876608885 -0.12029237067917652
C -4.997914133480143 2.570349543514399 -1.1781620942392959
C -5.683892997708871 3.077912960994098 -2.3955501898540237
C -1.5243297284145498 0.721279195195457 0.28622309567533266
H 9.317258154434464 1.8263098260929806 -1.7789815865110716
H 8.473830698847124 3.3524376418389674 -1.1596769623252365
H 6.7775554993438245 2.2815450935139476 -0.21133451002198683
H 8.243247284885923 -0.3134583051745961 -1.320587302169751
H 6.700808327136545 -1.6963286987800128 -0.5095306541542873
H 5.362931610178684 -0.8655794050553031 1.4105458014603787
H 4.407065080926632 -0.8390792516757076 -0.08261885133588492
H 4.617708547180783 1.5915558995118255 -0.32560042686370816
H 3.5972433145290714 1.3729204684326848 2.4399131684528377
H 0.8421024482500132 -0.5629156421623434 -1.6707170850093642
H -0.737140597671601 -2.4717744554299643 -0.6056396389876989
H -2.4969622575967625 -4.302099539931611 -1.0918323535404342
H -3.7579691952416865 -5.111489586162348 0.020725179137822625
H -2.1266459568092833 -4.674556599570983 0.6096141926824777
H -5.460007569389029 -3.4119318982775604 0.7756859894666019
H -6.775837255286614 -1.2353901561302498 1.5185338431981028
H -5.9621781068962525 0.4010861360170266 1.5133961399450262
H -4.315648615140685 1.5163267278131252 1.9496330425578015
H -3.0337799079368604 2.5400391394416486 1.3448190165330693
H -4.9306193473010635 3.5233899301705653 -3.0441139270870803
H -6.156890905328049 2.1648643273538375 -2.892319794460274
H -6.5198672808951095 3.7491896505577467 -2.15335647917142
H -0.9807094756621568 1.0079292689923007 1.2643385645980028
