20

C 1.2547575500263073 -3.5143875231138155 -1.6245431382324524
C 1.7503206093834078 -2.3488992478652175 -1.2457492851123115
C 1.7903853304267832 -1.9115362153959403 0.17126338677878172
C 1.0314213948968547 -0.5739991560529609 0.2543651124339598
C 0.46738315169893735 0.387671430894648 0.3034171208112975
C -0.28852959797112165 1.633062405033793 0.35483495183780067
C -1.4683198440275285 1.5226964241782226 1.3109450320910159
C -2.1786927193017984 2.881643552997164 1.284909592859158
H 1.2517619875198218 -3.7849103577455776 -2.692443591610538
H 0.8429719220251317 -4.238400573329064 -0.9460262400148132
H 2.1351889950899534 -1.7035899111792852 -2.054807431272247
H 1.1737119063696044 -2.581830939245225 0.7874951160225873
H 2.7917486584353717 -1.7669892797100675 0.5530544330242474
H -0.6229107737029468 1.970691636948154 -0.6429091108437529
H 0.4063894131694391 2.439361967524002 0.7376754352239958
H -1.1564731714968293 1.216630905828865 2.3087293799960014
H -2.207122411018932 0.8033380345571943 0.9013022866264958
H -2.2315870335549164 3.1493578988944906 0.1956482502693046
H -3.2025110259419884 2.8005536471890746 1.6598263468183985
H -1.5398943418037514 3.619535300833825 1.7864208497095433
