15

C 3.7194994442337275 0.5284672057775718 0.17452814734323616
C 2.4319597685512604 0.6741825851201307 -0.04873336390207557
C 1.1397894894790415 0.7177702894963052 -0.2837984167341145
C 0.4828104776248273 -0.5579204323080543 -0.5573997473075881
C -0.9619600468203823 -0.4597998946577487 -0.2243140180919192
C -2.1145767467098135 -0.3779664728688288 0.061032464894489165
C -3.531743926066369 -0.2637414989188991 0.42556918563704155
H 3.970621178306304 0.3687898675986825 1.1914514304988562
H 4.323010509234959 0.5899488702110482 -0.689544658026659
H 0.7288121263081502 1.6886686261861954 -0.24498234227331428
H 0.6314523350702554 -0.9224730274963728 -1.5922202490746262
H 0.9264238109404018 -1.3230519130433307 0.1207637208784534
H -4.085601507960411 -1.2026519453936273 0.2875960582585629
H -4.009133103529005 0.5213868992536496 -0.18302673032656022
H -3.6513638086712032 0.01839084106896147 1.4967456964220665
