20

C -3.51033534422697 0.9283582586502892 0.8865267541788081
C -2.8075208970764387 0.35247056458371645 -0.08068612550456976
C -1.34263339234657 0.5231595033642588 -0.07766405263779265
C -0.5960883230594372 -0.7680849713784659 -0.23140689314739504
C -0.8900581288376517 -1.7514280109382345 0.8668571500462773
C 0.837483408285445 -0.4546634979866824 -0.1792504567429743
C 2.019058692632599 -0.20782362426443848 -0.1397049437503981
C 3.4413901748574918 0.08746679291816727 -0.11155801434823918
C 3.872181229267623 1.2890025334946376 -0.45068086895960535
H -4.598711825158188 0.8479743692634936 0.9526640432233361
H -3.046521240165821 1.5214000775162884 1.6812743831470003
H -0.9693336103190254 1.0232299728416523 0.8430687737843777
H -1.073456468173054 1.1592982806376373 -0.9570534379657766
H -0.8045254127816508 -1.2646016645620175 -1.2034620179537894
H -0.5694239246126886 -1.4163594150874597 1.857180779386874
H -0.2878225039171499 -2.672296660826081 0.6346373650152758
H -1.9494694519157634 -2.082086931866241 0.8617902533104542
H 4.128855429634076 -0.6892749962867781 0.1895054622191494
H 3.2215479677492778 2.0912788678016194 -0.7565716932669971
H 4.925383620177991 1.4829805521213244 -0.4221461094305279
