19

C 3.5215204666709035 1.757489196927995 -0.6655579341147149
C 3.137511337449781 0.509998561560794 -0.46553437565313877
C 2.6876500964570122 -0.6988041350137518 -0.21287721956857397
C 1.5464965498675054 -0.7818103421486418 0.6493912699439296
C 0.3785395880120917 -1.2363644870694008 0.2600707155332712
C -0.7790627638514094 -1.3088507812204717 1.1751318196825153
C -1.9156244587513023 -0.5125155097204535 0.7160770499353443
C -2.8294767886483494 0.1476286859845908 0.3296697135136553
C -3.946316348376142 0.9688844712112903 -0.1412495466871642
H 4.229551278247272 2.110573958880122 0.03429861886566091
H 3.065118600646143 2.2238150954836082 -1.4963370037230506
H 3.2340476219376963 -1.4688238160967115 -0.685824109427093
H 1.6444991468378822 -0.45527734696988326 1.6744790887521772
H 0.2589476423255637 -1.5664319460150675 -0.7554644485578738
H -0.4803674432269153 -0.9268261978131627 2.187095097126007
H -1.094060146476556 -2.3716923607014726 1.3040940101867278
H -4.360625089289618 0.5230320359640271 -1.0715251150890825
H -4.705893128164082 1.0852301823000219 0.6384806024901895
H -3.5924561616789865 2.0007447344590155 -0.4253504118092533
