12

C -0.4272893056913677 -0.45592614548104615 -2.562824142978112
C 0.4363548833047418 -0.9362133836078309 -1.6955009816222655
C 0.4827556948728273 -0.35746746611787206 -0.35456624349875043
C 0.5062434319989466 0.11876024731020199 0.7389176561269405
C 0.5272718409214773 0.6962417486713707 2.0523238682202707
C -0.5071285775954706 0.6657719571698469 2.8544234398324053
H -0.532365003433197 -0.8123825617613665 -3.5558289762028457
H -1.0983109541610196 0.3684060635049297 -2.272891045069648
H 1.0833950767334883 -1.742554730450515 -2.0017198050439133
H 1.4326468276308368 1.1690276331781262 2.3772984025563204
H -1.4106387919864583 0.19117808570401956 2.5212057325446837
H -0.4929351384258844 1.0951585445987018 3.838387091114413
