39

C 4.801959430739416 0.10994010984600022 -3.4811107269009325
C 5.3602175894182 0.44370390299948886 -2.3794078657100184
C 5.716617252091212 0.31147081029872925 -1.0671623786787205
C 4.5089300179017044 0.2306958064390894 -0.1417721289378422
C 3.543723540367344 1.2895819988368644 -0.48624488411051336
C 2.3644968679238714 1.3587608375540874 0.354367621176761
C 1.9105701845737273 0.6301912132885886 1.3601895818945975
C 2.6553496709097044 -0.5541558236236989 1.8180600062054673
C 2.0440458033140687 -1.7398451944384243 1.2535699679035335
C 1.3751073866266748 -1.5799644405033537 0.10724236783416452
C 0.8984666262523237 -1.3037684856738532 -1.0448305152289368
C -0.3310284811540776 -0.6237034082028499 -1.2133814672221952
C -1.3064092037828745 -0.5500137723247073 -0.33605042398604806
C -1.3631144509894235 -1.1241225876377896 0.9753218375644084
C -2.608797130053093 -0.8804598223452396 1.490171860512127
C -3.345623570374308 -0.10692189737198199 0.39575850614675295
C -4.746881992388113 0.2932292742507761 0.7153004660087589
C -5.908692382837412 0.622419797252027 1.0022707324531497
C -7.228407360167914 0.9964154664932943 1.3538490644564534
C -8.203186604063943 0.15659315009131022 1.0595788314872279
C -2.6043027644264694 0.04747755242333415 -0.5531877822926468
H 4.221252845578906 0.8730850563920072 -4.042375514779453
H 4.825078109881133 -0.8616898540027716 -3.8999572249004104
H 4.820641140455466 0.21037945689391999 0.8838569244066773
H 4.059492232360416 -0.7725653313310012 -0.4304647200700009
H 3.205017428625834 0.9947305382061751 -1.5841658599624906
H 3.991964306693147 2.2921668808568394 -0.7056156624241162
H 1.632310075148672 2.1755213184502784 0.07566749555210334
H 0.9804252887844852 0.9895115960233585 1.8588236636131898
H 2.753830970600947 -0.6518784564765548 2.9091599938385997
H 1.9969395161351395 -2.731155768431036 1.5544800488177362
H 1.5188236444761194 -1.6319623010970097 -1.8947958845112929
H -0.48829559354803187 -0.10689058012532458 -2.1400893932461247
H -0.6642255027598851 -1.6656365260954773 1.59063149045726
H -2.981239868688217 -1.1332870680549678 2.4342250087095234
H -7.366183741424314 1.9487192274065717 1.8230523049500529
H -9.205856851626864 0.2967151417788596 1.2535818435417816
H -7.958621321298668 -0.8683524407969297 0.633049992813656
H -2.874393109388852 0.5934553900139287 -1.501597177416517
