16

C 2.1834689969791694 -1.799848807047475 3.261872467531823
C 2.224447994211697 -0.7383741915875207 2.488278323432852
C 1.1799940145635133 -0.6216922943745605 1.4603776974035008
C 0.3432916593997996 -0.511645967130538 0.6521743314510675
C -0.6791386228603938 -0.37612072055194634 -0.37024679006570016
C -0.7753022039178709 0.729014471772822 -1.0932634368514065
C -1.7892713488166347 0.8786428707128788 -2.1185020876878484
C -1.9502516213509655 1.9234643330964178 -2.8689856212112694
H 1.4025704923020146 -2.570102273205594 3.148219770399442
H 2.8913864314623137 -1.9927595466202879 4.050287988885016
H 2.9877203295869044 0.011278061783086572 2.5992549919565997
H -1.3431082977777706 -1.2033423155035359 -0.5152219888026319
H -0.06736369538881114 1.5131477951993393 -0.8880714426120095
H -2.471908861426061 0.029773876073383058 -2.2610517397879626
H -1.3798442509724194 2.8311491587106956 -2.8608703790533796
H -2.756691016082415 1.897415548640319 -3.612010346415369
