5

C 0.008764451257430233 0.0003122459898888521 -0.0034848718929832477
H -0.6202027554312463 0.20152548137181356 0.872964787430526
H -0.4162555738069583 -0.8632563772272783 -0.5409410499291591
H 8.46646157816301e-05 0.9091632381596757 -0.6477335254468559
H 1.027609213364992 -0.24774458829410023 0.3191946598384722
