24

C 0.09702945632830721 1.1014548384924228 0.3874979536655383
C 1.320318976028223 1.3636594104274584 0.7110692084767063
C 2.5743815886046195 1.596079509930536 -0.034368708004671365
C 3.3541919074453754 0.35622883855001164 -0.211417393640197
C 3.04752029306067 -0.9153528492986583 -0.2610645628783421
C 1.7914021917452665 -1.6890602984182213 -0.16375282837558766
C 0.5106764526195497 -1.385855986474852 -0.06037911738029444
C -0.2047508863996239 -0.10134352009004868 0.001621529187928648
C -1.595554285803275 -0.1551845065079925 -0.4799747868418512
C -2.1947434107265056 1.185387776926515 -0.36542729695929627
C -3.2901922812547246 1.094376962831914 0.36242123089128886
C -3.457728981754167 -0.29353566083637384 0.7539643144697209
C -2.47721413992659 -1.0261492613412397 0.26851753214795376
H 1.4154763284385612 1.4195289134729892 1.786882801764507
H 3.1705805640323406 2.4354388079706273 0.3678018033009977
H 4.405695267374656 0.5644830989781033 -0.32269572436150373
H 3.9170738473949123 -1.5221214243659869 -0.40588503185521224
H 1.9413787994872174 -2.755576394572818 -0.17978250859887046
H -0.18875234183495568 -2.2043351839454988 -0.007735275790799812
H -1.6316510281676566 -0.3861059532299616 -1.589104708422095
H -1.799478916078276 2.114172924692323 -0.8107877602996546
H -3.949749187390624 1.9342007497857063 0.618197564772367
H -4.30814280845713 -0.6334069284882962 1.3739101610584494
H -2.447767404766454 -2.0969838644885486 0.4678462779817507
