24

C -0.8331586901020813 -1.5062415557606086 -0.8318410417322766
C -1.950177972673403 -1.1282984269457892 -0.2335281134010507
C -1.9640077392644215 0.13038398060461937 0.5320715473232392
C -1.9786870722258196 1.2711826396370216 -0.4592101276587865
C -0.731386067311919 1.6366118793372424 -0.7477688975858444
C 0.17084735089073547 0.6534640405766402 -0.15273772285430456
C 1.5730835246862824 1.0886454153818796 0.056591420701356074
C 2.2023181236308202 -0.22072578502616574 0.539363086415241
C 1.6189437813873742 -1.211197699528054 -0.44233340114004
C 0.3471931059580285 -0.6014622121837647 -0.9876055673026706
C -0.5461336345528479 0.2683561076566242 1.1138058993558613
H -0.7152136900932521 -2.510689679239982 -1.2474007725689564
H -2.8190245323464387 -1.7523047570484591 -0.32314696894138395
H -2.7349452779286287 0.21584999516419878 1.285094745141805
H -2.923007251871865 1.665497347315797 -0.8235724764748549
H -0.5256472840742373 2.5299600051317737 -1.332133755585037
H 1.698660553667998 1.8967255825251343 0.7974424809566919
H 2.0147071200981754 1.3248307772414063 -0.9321681725174371
H 1.865667924201667 -0.4515679974065235 1.5721683613012485
H 3.3061472942767764 -0.18664880124416744 0.4807711708443509
H 2.3429969545283558 -1.2947253617200594 -1.27960199971981
H 1.3881478300265395 -2.190383492023048 0.021006201922214664
H -0.23495349591994863 -0.6892415961495514 1.5305098435783484
H -0.572370854987877 1.061979593704055 1.8642242599420555
