24

C 2.0512214503080726 -1.4617916680024206 -0.777183769582991
C 2.5931344426482665 -0.8035072819312788 0.22081258834197667
C 2.684576292115548 0.599005616627574 0.5896167430775655
C 1.940552999245168 1.6509224469659851 0.29700435543449966
C 0.7227166936224174 1.9141085311668011 -0.4988933111794703
C -0.1338672725027939 1.1666850802727848 -1.1910120122069623
C -0.18226142355272704 -0.2691450062717893 -1.427783639268763
C -1.2000188037609834 -1.0191755362161283 -0.6507433171715252
C -2.5799230215690043 -0.6318537069229937 -0.8574716298429975
C -3.100226872767577 -0.3244361830889276 0.3205102827661857
C -2.110965916479035 -0.48437392615835473 1.3850273768519175
C -0.9923212414925797 -0.8939908162610642 0.8083531363797565
C 1.1190183512953409 -0.935041479204573 -1.5191385499876071
H 3.083859600959339 -1.4915442326593877 0.925186130698337
H 3.524968622857783 0.7964556277888785 1.2213963756138368
H 2.3155345004189876 2.5464621770714913 0.7542313672905834
H 0.45194532176442903 2.964143081894602 -0.535283666615387
H -0.9139500595275958 1.7766443098220779 -1.6381210673427247
H -1.0892168175568167 -2.1089588811998494 -0.8876776672982385
H -3.1977108892356307 -0.5610385418877942 -1.7487139959618243
H -4.110426024101168 0.0068705912657460785 0.5407132213113628
H -2.226536908263737 -0.3119701465722392 2.4571171675652446
H -0.07111219589192254 -1.0979411171237932 1.371189008292678
H 1.4210091714645054 -1.026528939375315 -2.5642774320292707
