13

C 1.3619154452421587 1.0017664101638466 -0.3729812672385991
C 0.061510188690312904 1.1820716041853352 -0.2745059647129572
C -0.566956201400293 -0.13153472913960693 -0.12158948450474215
C 0.5307392264653884 -1.0932649552334317 -0.14384460928301182
C 1.6569281790277415 -0.42089323667708534 -0.29142376652052304
C -1.9294517108277647 -0.40521918901908305 -0.17776885317384314
C -1.4448685997723567 -0.22752210895494362 1.0960126178791794
H 2.1117404614732567 1.8051685848871495 -0.49797238054328397
H -0.41850457691284704 2.1780045079421986 -0.30805475660360376
H 0.4522957349259685 -2.193638295063337 -0.0543535970505172
H 2.644153164327216 -0.8836110085155703 -0.34168236804023516
H -2.8742751032600604 -0.6242806864062224 -0.6735045462092627
H -1.5852262079787343 -0.18704689816925232 2.161668976001348
