13

C -1.681233570379389 0.6719761203758104 0.13934206832431573
C -1.34381766655104 -0.6194314303809518 -0.1526211687382054
C 0.04300374971257056 -0.6634673184472414 -0.15022478114561708
C 1.2998176950649771 -1.1290256401808847 -0.4250133142802128
C 1.8560085970184494 0.05756062923429724 -0.268696587421746
C 0.6065122208018787 0.6749673041223424 -0.02065096612339699
C -0.4294353746629789 1.455769286981673 0.2503548066285911
H -2.657687667422134 1.0892163258118117 0.27294163593151866
H -2.1297628212028954 -1.3398661076850347 -0.3243742483741677
H 0.14749046947698208 -1.0436023008595503 1.1692528564153553
H 1.8344998065241058 -2.091737021038488 -0.6946559361005124
H 2.8907876433740287 0.440318735845739 -0.31078782332312105
H -0.4361830817545464 2.497321416220571 0.5151334582070658
