10

C 1.0414327976148245 0.18135057357759218 -0.20871431508630964
C 0.4978703902810776 -0.9545156412268165 0.005733620133168209
C -0.8118644076447158 -0.4110573476397831 0.19717038602743245
C -0.2116979035871113 0.9092359138910922 -0.04615994540183509
H 2.1017811659874917 0.4557335784059012 -0.4345210036085692
H 0.8950626890680129 -1.9778334113646086 0.03279959731065716
H -1.5177867386766415 -0.6786517062413665 -0.6369653085764572
H -1.2894792766031535 -0.5598906613437888 1.2053164041298918
H -0.5866626754621184 1.443673615315771 -0.9552091564230751
H -0.118656040977658 1.5919550866260124 0.8405497214951042
