12

C -1.1113394932333425 1.110452655729 0.5471918094858467
C -1.7078587540665178 0.04350676292875848 0.14539063167584143
C -0.9262687693260349 -1.2065247667898986 0.020736419385572573
C 0.479472228369307 -0.8748663244740693 -0.3929046958514393
C 1.771049710290648 -0.42785768510578637 -0.6105422938442226
C 1.0803077445169806 0.19910230816597413 0.4949208319196355
C 0.15312303176440736 1.3570880482091383 0.3228781662230655
H -2.734418663661455 0.04301618395143663 -0.09471468074661937
H -1.319854836289281 -1.8875572633025866 -0.7672893143310969
H 2.6527706697953892 -0.5373626615772531 -1.2327138918869547
H 1.1954289353183676 -0.16399303740926255 1.5328527300805683
H 0.46758819652154276 2.3449957796745173 0.03419428788980159
