16

C -2.4881968732889908 0.7537737361378163 -0.14614493035712495
C -1.2249668751450193 1.1340665014321645 -0.39564321095220834
C -0.29645852935975564 0.064913257547186 -0.009821303395941611
C 1.0230704749644892 0.09100724798953098 -0.11374833126683352
C 2.2690010471430955 -0.7543336919997972 0.15527394061403538
C 2.3737688716756704 0.5709677063129566 -0.41136202079948014
C -1.1776701754356125 -0.9938633621477021 0.4991218501297696
C -2.4353568940933585 -0.5887992250012458 0.41676845266482376
H -3.3780303384476333 1.3566574865057037 -0.3378874928174742
H -0.9322794616604235 2.079788968265804 -0.8154171467225044
H 2.3357180898485095 -1.6804237416473429 -0.43934419511081646
H 2.4638859090296563 -0.8986695217831778 1.2414908541619183
H 2.8281882126319533 1.367613638325685 0.22007903795088338
H 2.727570430295011 0.6377033323531209 -1.470198708164813
H -0.8104644023157906 -1.9560891664544044 0.879354938971722
H -3.2777794858418026 -1.184313165836269 0.7274782650940433
