24

C 0.294463525215569 -1.2372417031554555 -0.6225649758207351
C 1.5071069465853464 -1.563631315345059 -0.3780091847398332
C 2.6372072662313486 -1.0357522494957265 0.38699127661276367
C 2.903803012229088 0.20646305476508983 0.7793163866511992
C 2.2376875949580626 1.5171173523752453 0.6358169767619467
C 1.2363375814636033 1.8823091376119052 -0.14983189192119892
C 0.3372332749092201 1.3227594751252618 -1.1703738153140602
C -0.14003960769666482 -0.036414930828869284 -0.8657218036851299
C -1.6288376641908835 -0.03329291130548669 -0.8212187861755493
C -2.1681534828277496 -1.3622003473959605 -0.5211192940122533
C -2.8731175266382687 -1.3232171463214322 0.5787782363960325
C -2.84992291474178 0.03365741721176824 1.083713672748901
C -2.134373817595781 0.8034046195207739 0.2897588548631957
H 1.7805547550044347 -2.5043289296625884 -0.8824708403873944
H 3.37032743857169 -1.7733775040410051 0.6785287996404857
H 3.8241607742864487 0.28269994803128057 1.335298842483642
H 2.6262805238391276 2.2961573847860306 1.2676439758910707
H 1.0057553248751714 2.927733147192832 0.010628089096909116
H 0.7243775667076808 1.4247398240288252 -2.187982832394708
H -1.9726837974152835 0.3631848308514082 -1.807250914010984
H -1.9980299564454567 -2.2462616319914908 -1.1350242742348917
H -3.4074789754473547 -2.1536247772011565 1.0698587569943416
H -3.3691162898011675 0.33986186066293483 2.0043230143645623
H -1.9435415520762496 1.8692553945807329 0.42091173019103406
