10

C -0.43997767702699014 -1.3250246167052102 -0.1969032144501162
C 0.8283458420571141 -1.0323566021375263 -0.15374668559798246
C 1.300795911676178 0.34153510880172566 -0.022905960957848907
C 0.4458143392047775 1.3197606938745121 0.2186856039941775
C -0.834230818135796 1.0513681766173506 0.10359666908237945
C -1.288980064039928 -0.34823573689900184 0.07891350537568789
H 1.5386059195489585 -1.8444101197163127 -0.21814196421181906
H 2.355395414110561 0.5417825975441127 -0.12663188443458384
H -1.5793256253021575 1.8302056778360392 0.024923428642569356
H -2.326443242092744 -0.5346251792156909 0.29221050255753417
