14

C 0.2952020773393493 -1.712447114052718 -0.5240436149890626
C 1.3904090661299104 -1.006593061919619 -0.3662995878242028
C 1.5421497176724392 0.4275987420306501 -0.26461291115360847
C 0.5841094697185588 1.2939660878560912 0.011866592685553554
C -0.8389534054707178 1.21767873186344 0.29634577934952056
C -1.525873080079822 -0.029850109178902323 -0.11402384922831053
C -0.7514189885038801 -1.2607186112736968 0.12208834336269922
H 2.2859051626625013 -1.621608631219382 -0.30851049631650146
H 2.5404822230132753 0.8177879600584256 -0.4330177193404975
H 0.9767590683854703 2.3239293139824975 0.02677848214785973
H -1.0882571096909635 1.6065900801186397 1.2819697089908642
H -1.913401171280342 -0.0025774095504750025 -1.1743205205742324
H -2.459269138593537 -0.12684269583820687 0.5177007984152615
H -1.037843891302227 -1.9269132828767608 0.9280789944746191
