14

C -1.4621706755804273 -0.2603244839357919 -0.3954154627362093
C -0.9062817942449074 0.9405542550001972 -0.4788938989697821
C 0.5206260076063052 0.7645204382498514 -0.35525442335157925
C 1.473194708958231 0.5498230703878111 0.6434754616529941
C 0.4370189744735025 -0.3683955792467975 0.7346978735351811
C -0.3420965634285642 -1.2508827156306315 -0.20385891303904174
H -2.4941283327332338 -0.4819668436828093 -0.4522044761886487
H -1.4794851138826557 1.8786412041151765 -0.6185317472857921
H 0.8864363904029613 0.41971707248698564 -1.3854453790298875
H 1.5991354934315496 1.367190997141373 1.415505037900688
H 2.5063684028335524 0.17594910518208 0.397291003447382
H -0.2712198165958512 -0.17087902275575104 1.600808197111746
H -0.6785280059069702 -2.187246266540492 0.23546446253525538
H 0.2111303246665429 -1.3767012307712316 -1.1376377355823253
