8

C -0.6766952628899904 -0.7048965529279742 0.018265577739697322
C -0.7859838854357176 0.6053603945914391 -0.009409682867552368
C 0.6720852534600118 0.6910264437033136 -0.017944473951381407
C 0.7723658191384802 -0.6314678661955557 0.010032673316373414
H -1.3587431326185544 -1.5234811374410264 0.038993610665011016
H -1.5746634137596291 1.3244722876315518 -0.02125346680839364
H 1.3471166103545429 1.5358636468167453 -0.039205357739666095
H 1.6045180117508575 -1.296877216178491 0.020521119645907866
