15

C -2.1413309353232797 -0.4159868647252365 -0.3349626418374403
C -1.0977733266985426 -0.40019759840448604 -1.1469540772942013
C -0.13649179265454245 0.6512120365407256 -0.7318052657328633
C 1.1331779369806083 0.013775266542827543 -0.2803303291342803
C 1.966802938457224 -1.039339281890875 -0.36266436455877593
C 2.356556638373456 0.03617666186990965 0.5346380813289251
C -0.801495816584452 1.2406151534881988 0.45811282112072504
C -1.9504973618807617 0.6263168313095757 0.6825519135627267
H -2.996252743520753 -1.094750380857938 -0.41666008405754196
H -1.0028434856406325 -1.0916500310225723 -1.9980553771727645
H 2.1843200723716643 -2.013679160217736 -0.8016853904162532
H 3.2071158137653546 0.7027885773123774 0.24401634162248043
H 2.309617601786392 -0.11131127983859067 1.6369617116506359
H -0.37616114793382627 2.051235948979407 1.0292708978998812
H -2.654744391498134 0.8447941209144568 1.4875657630188017
