19

C -1.1913019033557557 1.962246060149759 0.19917967072673168
C -1.6320315710923272 0.8895339139110717 -0.41419118191297316
C -1.7314459809275384 -0.5211180164166327 -0.09741459325413648
C -0.6115059934991992 -1.2305842864699306 0.5241022698681544
C 0.7450251596142887 -1.2139156978088221 0.03748248900183994
C 1.3025703304943343 -0.04434159331002809 -0.6835535071443691
C 2.499707901664349 0.6856652030265289 -0.20036048695384298
C 1.2769504828022107 1.2187709211668654 0.10165892212139774
C 0.08575994082622415 1.9404491258418095 0.5217724723664591
H -1.9941813827520989 1.2196973140314211 -1.3900492232899226
H -2.666103803508294 -0.6658978552396033 0.49455637380401346
H -2.0173099581761478 -1.036359112830758 -1.068487699802469
H -0.6101887325153459 -0.9238794789433823 1.6214614550308506
H -0.9304259165397428 -2.3092040603623425 0.6342658573259443
H 1.4659854469808844 -1.3935837551922148 0.8859810795703505
H 0.9738814957247311 -2.085580279065301 -0.642530082726592
H 1.1582551505515328 -0.008234860965696873 -1.7799618073361443
H 3.540303979907949 0.8645965006282378 -0.06379859452252326
H 0.33605535380009743 2.6517399578491623 1.3198865871271654
