15

C -2.1622329024370224 0.44342932682588865 -1.2471958433784476
C -1.092071187437642 -0.2465779010289473 -0.5914784616152358
C 0.24933985602513606 -0.8297681908942789 -0.734360970337022
C 1.2392820340804844 -0.17520649206838462 0.19817949970889817
C 1.3958923996937032 0.8025819524151414 1.1821249781508576
C 2.5510262453716184 0.01694251421380937 0.7878838557225194
C -2.3397580225122385 0.1286546882348464 0.11407270933851693
H -2.463809039703778 0.8625805317517086 -2.2013916864795116
H 0.1697028714056698 -1.893985954202104 -0.43304631929399
H 0.5958203649329195 -0.7483505625354004 -1.7803740982854985
H 0.9263712946036557 1.5735392711588538 1.7744603050852663
H 3.323939103528322 0.511975146513263 0.15536609012809507
H 2.9718404522401802 -0.7075792058934364 1.520715412252096
H -3.068700688494795 -0.6761761361687567 0.38115439592843325
H -2.2966427812962364 0.937941011677794 0.8738901330750855
