24

C 2.3040003972897622 -1.172882837230921 1.1083866401188123
C 2.998184746408417 -0.13032159688824607 0.7918103603494813
C 3.0206649137112063 0.772106770448412 -0.3709372316557661
C 2.115580459415202 1.080564623485675 -1.288374755376464
C 0.7209403873489629 0.6384648982572294 -1.5069798629697644
C -0.1490759298073127 0.043447161271420925 -0.70277499498507
C -0.1031441342869888 -0.4205221892968185 0.7143864994116068
C 1.040836067749276 -1.3176096701346356 0.9761278469426352
C -1.4209860792916738 -1.0904746077516512 0.4997999834119023
C -2.580145578170685 -0.5604066263645388 1.2953141512899569
C -3.1265785215779496 0.5893926331289693 0.5024877350080169
C -2.548469894610111 0.6570325781997225 -0.6805022862356842
C -1.546296454253868 -0.427555401362018 -0.8389676721834158
H 3.742410329610178 0.161221922456106 1.5484911845459384
H 3.9705831701282888 1.2849113941705095 -0.4977905934107425
H 2.455224208386675 1.7943918097210947 -2.0247557447185707
H 0.37020481339870487 0.846243908017556 -2.5017918647432014
H -0.10086658985147015 0.4227618109267291 1.4452896844461354
H 0.7741881358401212 -2.375089905626322 1.0900018175252058
H -1.3906872289417973 -2.2151511534769353 0.4638843739655536
H -2.1804466683278783 -0.09064440311831437 2.2415945359481473
H -3.882069122084128 1.263902676936125 0.8473080928978413
H -2.7473100758226434 1.3853749405302263 -1.4570198492448387
H -1.7367413539593461 -1.1391587348491257 -1.6549880498715923
