16

C 2.19931811931894 0.03448553849667871 0.3136622901040898
C 1.465178487662671 1.1188238411864784 0.4316790416097654
C 0.05595355745257302 0.7497907847524874 0.15997330586525416
C -0.028155331942943042 -0.5238324444446989 -0.11072120104077961
C 1.3583795670328132 -1.1255194861527598 -0.039553494008564
C -1.443528504629332 -0.8540352170136253 -0.3753749348033851
C -2.161976193482154 0.4117132996075275 -0.21827376086688774
C -1.2851294826340778 1.335794757442134 0.09197716515037688
H 3.278531066391907 0.06035907854177694 0.46953547239591337
H 1.7688508179814366 2.125746684477196 0.6787951043032389
H 1.6368600362586663 -1.6045149250237796 -0.9902733001348039
H 1.37150651647224 -1.87366830625416 0.7972561825100306
H -1.8213213716349006 -1.6590560355748103 0.2939294040674439
H -1.6047098031160718 -1.1691736727534865 -1.4381385385058987
H -3.2398331297322756 0.5838221638863297 -0.33368905004305177
H -1.5499243513950987 2.389263938814696 0.26921631341262126
