28

C -4.6946581962691285 -0.07524532764835946 0.37955941892433787
C -3.526936877995415 -0.5164341324105528 0.8039575859137221
C -2.484805390768835 0.05918066394416089 -0.062032862183170556
C -1.6166121079396933 -0.9651784127470655 -0.6906385389069067
C -0.3387972059337281 -1.072864311060282 -0.3660502715881976
C 0.24057601409367185 -0.16267774596818738 0.6372445305989259
C 1.3818940952623562 0.6644478655537338 0.0684762903261723
C 2.506017314735146 -0.19644968465878399 -0.4353735849804921
C 3.5598015429434793 0.6992079589133027 -0.9649740671982895
C 4.6259900515093095 0.5698851116780085 -0.2074883870580085
C 4.359368198295548 -0.38099652672728357 0.8310868078353201
C 3.1395920065353753 -0.8468234409109234 0.7310661643166207
C -3.2147672349181593 0.8852299181348545 -1.0339123932218224
C -4.503040881742787 0.7974801636187951 -0.7644304059762367
H -5.69201712294951 -0.2973685973529368 0.7861763060987887
H -3.4168503157679604 -1.1900453158638271 1.6555457886337417
H -2.0573574196853865 -1.6238421464816044 -1.4237554749622143
H 0.27560337170948224 -1.827062432013234 -0.8370412177194166
H -0.5354604893292451 0.5639644886178781 0.9461827868624161
H 0.5525302511653566 -0.6867627086387608 1.5647396676407686
H 1.0300053003500902 1.3075390301693346 -0.7404514568897832
H 1.7370293410966047 1.3074910929197372 0.9259178178977134
H 3.5123091286054064 1.3606834337952893 -1.8176789566222382
H 5.5676018282124256 1.107452741261424 -0.3525626013440607
H 5.052059343798197 -0.6958720646533391 1.6115424772749292
H 2.6669237982045897 -1.57972812764381 1.382227178835139
H -2.814901410444612 1.487944821478332 -1.85652562009648
H -5.311096932772643 1.3068436846941114 -1.320155394073178
