12

C -0.8222792604958107 1.3779005695771485 -0.27721011147899083
C -1.4435211810273507 0.30314723182617986 0.12252620768562344
C -1.1486981091965527 -1.1386162237544282 -0.03590720236605437
C 0.2792335784868435 -1.4593680443649102 0.008202153812898946
C 1.3465198774140943 -0.8227615704562447 0.4052323603994534
C 1.4568332964532844 0.4613544991523402 0.25308472712868135
C 0.46771866181658184 1.472926315891678 -0.07298022070864277
H -2.3428090452119563 0.5001880554137734 0.6731079075940757
H -1.6423614424492894 -1.5590184455122114 -0.9378704910104912
H 0.5173130932327754 -2.4461394054455505 -0.37216979606233397
H 2.4521283646109864 0.8437554567710673 0.39229280261993626
H 0.8799221663664359 2.4666315609011313 -0.15830833761414856
