11

C 1.1087588761772427 0.7711636764456049 0.22922498767026853
C 1.163100795311767 -0.24748364833383632 -0.5887321486226827
C -0.15248702370760475 -0.8316688834285572 -0.24251355763673826
C -1.3020995320738493 0.10945297271959048 -0.21691812604142327
C -0.19803061585888232 0.32309145076197315 0.6978759324762311
H 1.781231735314196 1.5909850669309047 0.4416074553406745
H 1.9293244776011498 -0.5549956292474367 -1.289584772701862
H -0.31454724444908816 -1.8508446158513192 0.040078669965019104
H -2.2563940339827826 -0.267898577679735 0.19321298180618532
H -1.438098372804627 0.8207338007577626 -1.0754070561613451
H -0.32075906152751454 0.1374643869250441 1.8111556339056682
