11

C 1.0681743838074806 0.7013928161951342 0.12476572282623039
C -0.16094458358968738 1.1575848194261595 0.018397565938178782
C -1.0846314005961546 0.018697227250453453 -0.08973852426279616
C -0.22921930279869282 -1.1607867525924425 -0.032120025219217016
C 1.0103045655269902 -0.7474916483412307 0.09176966075674907
H 1.9347295349126947 1.3532027876832975 0.2182740853543017
H -0.4794167415744325 2.213253506015242 0.00868760779957514
H -1.8766939662869773 0.03794394877060137 0.6927138801041035
H -1.5434307827394231 0.0006735638352378123 -1.1149830100136675
H -0.5548921681256935 -2.20819199654839 -0.08255223304465709
H 1.9160204614638965 -1.3662782716940736 0.16478526976119093
