21

C 3.024440151665434 0.493427138130992 0.1942030928711441
C 2.068761301946216 1.395738661077991 0.23944642122411156
C 0.7544495041839098 0.8520165777285519 -0.0537223756112129
C -0.5175590503625837 1.3352797907071423 0.05416175558100022
C -1.6021606747638693 0.4633276206252554 -0.40188570787425
C -2.894706799664549 0.3131598363735861 0.1632767920465597
C -2.567834649172915 -1.1381387610036877 0.41144698059681156
C -1.3744835090941783 -0.9314491438378611 -0.0918888717939611
C 0.0004677145590222705 -1.4608083751305054 -0.30198622491546956
C 1.0115576250327112 -0.5807131937362253 -0.2556761577002051
C 2.4670343985600938 -0.8237876373023513 -0.17509774606467962
H 4.090361409500051 0.6509366299559636 0.3936943021151859
H 2.233258457525418 2.4416213996829597 0.4708480293910836
H -0.7012237394360357 2.2982432785942337 0.45091770720661734
H -1.694636464095232 0.6034149874948751 -1.5853313911099098
H -3.092482313972805 0.8671363491024533 1.1183963115476863
H -3.803195089966038 0.32010276276864386 -0.48963273293552184
H -3.1589106458972775 -1.9348278873203153 0.8385124960017608
H 0.10960265303273162 -2.5024183040754586 -0.47550852021765716
H 2.9092895154601277 -1.1234509068299439 -1.145360562564393
H 2.737970204959761 -1.5388108230063071 0.6411864022052933
