24

C 2.7557652954902947 0.05504744821153313 0.6685476553796939
C 3.509712774436178 0.9679923407684518 0.07630612682728269
C 3.1897623820929657 0.7741774872296234 -1.3373943938920294
C 2.0466043479491574 0.060550822281887635 -1.4005890813667745
C 1.6487443856695736 -0.19255862636557217 -0.04487787703763072
C 0.400131713310631 -0.6083962479620295 0.5449617288618561
C 0.3977362637203798 -0.7496984654528517 1.9032726719573658
C -0.8796766951363257 -1.1799945207824194 2.5621220464270418
C -1.9189420173016645 -0.2441798671333721 1.990863949517036
C -1.9049776810808952 -0.10832099431501419 0.6714882716126334
C -2.66208791348173 0.6385105304471551 -0.3133215697185192
C -2.122582282314959 0.26796714322419957 -1.6341069922880964
C -1.1276640694567932 -0.5868317349114991 -1.459622835875368
C -0.8640374632983162 -0.8974979007386854 -0.09229078312289318
H 4.188952858680846 1.6793852386865338 0.4959257963816953
H 3.7156283701762542 1.1065169821930072 -2.2067578766271425
H 1.5345282409690053 -0.260513224183332 -2.283286498502152
H 1.2526452964506438 -0.5693354680426295 2.504407206604718
H -1.1158996028232744 -2.1768283532490496 2.1070412558699827
H -2.614026167514862 0.2676718811191147 2.6283594985161227
H -2.573716552714473 1.7437532906340978 -0.2101753829520076
H -3.738481663052605 0.3487771673693482 -0.20510194402351628
H -2.5038863277614873 0.6551179100832277 -2.6075266717772196
H -0.6142334930084438 -0.9913128391117474 -2.35824430077208
