14

C 1.5267038366639833 0.35718325382782384 -0.060954737003715835
C 0.6311973173833885 1.2498413741081527 0.23026102788224398
C -0.7991160986138607 0.9359113704953792 0.29132950006625397
C -1.1804233606106247 -0.46235935668989064 0.0019977161467127943
C -0.09401397414294729 -1.383824882057746 -0.31366495592964094
C 1.1640839526638675 -1.0040528216925866 -0.3432003317786531
H 2.5731408757538192 0.7047191760830083 -0.07821688474867894
H 0.9234164326327317 2.3098170471415855 0.4490826099191794
H -1.2144421622100026 1.1805181490525865 1.313658871112588
H -1.3783220923645458 1.649561162836848 -0.37373125965447185
H -1.9196517707992535 -0.49825452348465626 -0.8577201730036319
H -1.7936231638977564 -0.8836761227497871 0.8544908562096132
H -0.37410009308756753 -2.4380545623216507 -0.5322832583097005
H 1.9351503006287303 -1.717329264549048 -0.5810489809080902
