12

C -0.4883822913984299 -1.7795611412053294 0.09021185256311404
C 0.6549948239695733 -1.6388044993497115 -0.4154881626432617
C 1.4428909709703108 -0.6339891378323518 -0.2633152891991639
C 1.04346916946963 0.7345420718628837 0.05779983731238427
C -0.16439458712065186 1.2633577292853544 0.1404053870944064
C -1.46392029451311 0.5767214566465083 -0.07976066226457389
C -1.3347724185748495 -0.8446426000324133 0.347094018251114
H 2.4937661206516304 -0.8464472963910576 -0.3896367173743632
H 1.8390669831742792 1.4302882479453747 0.2603752899640584
H -0.15664770303023365 2.3120220693187896 0.3988235452553701
H -1.735360160000083 0.5682779505820637 -1.1638623319224946
H -2.1307106135980947 -1.141764850830161 1.0173532329633808
