24

C 2.939566426992445 -0.549726115620134 0.3678304390023843
C 2.72844010574612 -0.02542413559996025 -0.819427175475895
C 1.4106737425948952 0.588429528316383 -0.9383197492867554
C 0.36442920127395395 -0.29373374002975217 -1.5322704920527361
C -0.7992111445936472 -0.1729729069737344 -0.6457844763044489
C -0.4404021013090598 0.4066573021632994 0.47144297715550126
C -1.620320794271468 0.5419917390622772 1.4007644295316768
C -2.77013247890415 0.5138457793204401 0.45115202876468025
C -2.2790875563704094 -0.4892010694219504 -0.5846193710199894
C 1.0041438791715536 0.7634765843428208 0.5113280205110039
C 1.7457427285156193 -0.34107764253800676 1.211415155228543
H 3.87882547643906 -1.074968742002571 0.6942232301406894
H 3.4536556992567773 -0.03614191246442219 -1.6511352708195652
H 1.5136952331105311 1.5737611750192104 -1.4290680905967517
H 0.07184061432739773 0.16674856058816345 -2.5204400277917314
H 0.6906282931892652 -1.3382540154417513 -1.703850228935302
H -1.6361703389642699 -0.27086990816444373 2.1508709040964638
H -1.6065531596079845 1.4914358673269652 1.9502183266174329
H -3.725927890244522 0.22373648445568659 0.9041783246858529
H -2.8875506554510677 1.5235287688429404 -0.0032980325196580985
H -2.4255771010245843 -1.5059337378623405 -0.17009795965872385
H -2.7682826525688773 -0.3222921275636473 -1.5521136555923716
H 1.1561110982826295 -1.2916744292773088 1.174190470781502
H 2.001463374409533 -0.08134130647810844 2.262810223538127
