24

C 0.6145404114784311 -0.7405111433439402 -1.5668151940641843
C 1.6961944078816138 -0.10989497763007573 -1.8593186234583523
C 2.746620379583772 0.5250025249189317 -1.0655198068198797
C 3.1128317140295527 0.3669981754110722 0.19494815316189834
C 2.6773532552218566 -0.45425698147518584 1.3129072361889378
C 1.2544424607140683 -0.4174531240438324 1.6162815290965384
C 0.1490582445947201 -0.4374410597762625 0.9059033656880532
C -0.11517666615033743 -0.5070885969597572 -0.5272834061302396
C -1.5186980307144773 -0.2577834738585378 -0.8693893291163352
C -1.868563311379665 1.1033606952822779 -0.39282962740374333
C -2.878370119935897 0.9751430996263863 0.4278378039387464
C -3.2573685858530923 -0.42752030930742424 0.5505993876370626
C -2.4624792546891654 -1.1601470570473924 -0.20940515977680133
H 1.8544857379328654 -0.038756425642545854 -2.9300738687959984
H 3.3187204832213584 1.2533506910430796 -1.625691132742047
H 3.9468089468411134 1.0075198581810714 0.47139850719838644
H 3.341911604779475 -0.4736549535656352 2.172666715579751
H 1.099677177235197 -0.35928142191693463 2.70436896001963
H -0.7354385735486474 -0.3920080008514274 1.533040525681512
H -1.6492838407488375 -0.25017646903699564 -1.975588525903547
H -1.375928277404503 2.005211444132537 -0.6784110616556112
H -3.370383986549573 1.795119324011059 0.9483806751379824
H -4.073505905808239 -0.7754247929966817 1.1804537481298252
H -2.507448270732621 -2.2303070251541577 -0.3184608715915052
