9

C -0.121801976329859 0.8468776755925539 0.06702349927581114
C 0.8028458267594485 -0.3097699665355753 0.004329340936712414
C -0.6596563969130688 -0.5525628791984956 -0.07832753194969633
H -0.3134264925224708 1.4974486843718622 -0.7967172453541762
H -0.17674627578467186 1.3664379192545935 1.035439401886679
H 1.293389386685962 -0.6414075387845751 0.9276333528774613
H 1.4282048034790937 -0.3806622271211531 -0.8930663522060804
H -1.1756592983046028 -0.9710470395083611 0.7950183479001447
H -1.0771495770698294 -0.8553146280708464 -1.0613328133668645
