10

C -1.3246093040814753 0.19419151455085645 -0.03961464840178999
C -0.7034353094899976 -1.0372835160628218 -0.0319442182721576
C 0.6509780598003169 -0.8450329564303313 0.012302943947835859
C 1.9845211428544538 -0.2880267750241493 0.059386375478355284
C 0.8555052157443616 0.6161878788410076 0.032687404033023455
C -0.3810063110441111 1.1920225844260322 -0.0005232919264815272
H -2.4105609656464817 0.361541434796929 -0.07202613139862453
H -1.1763184301301615 -2.026499700670704 -0.05622941368940149
H 3.043414107787479 -0.42994428552875286 0.09117575569367263
H -0.5384882057943496 2.2628438211019164 0.0047852245355607375
