12

C 1.290565269570265 0.46052117228596223 -0.011187542176758096
C 1.0224103343700002 -0.8912663759395351 0.043847940724292135
C -0.26586164768592796 -1.3837855237831869 0.05639452024587913
C -1.2865835676042978 -0.45741696139984256 0.01108754825226878
C -1.0301965655419385 0.8955025218818504 -0.04407294096352051
C 0.2621839325608717 1.3800852280041955 -0.056257079139732255
H 2.304407504053144 0.8211755803531913 -0.01997806860932385
H 1.8460181082733997 -1.612943923613688 0.0793410347636749
H -0.466835090690507 -2.4588976934825943 0.10021571860645444
H -2.3024896573095015 -0.8207594464414337 0.019970248449336238
H -1.8396802365114775 1.610844610632198 -0.07921617353398282
H 0.46606161651597283 2.45694081150287 -0.1001452066185829
