13

C -0.8680526200578765 0.3185888192413933 0.8437284077283148
C -1.0283605298165372 0.2399958852530839 -0.6624728850469515
C 0.2744302794508597 -0.5234313621829924 -0.7636241141313886
C 1.4545408104073518 0.16378835242840742 -0.1681550659395856
C 0.3985364416101808 -0.463267452650134 0.7072447628606765
H -1.6386715079517709 -0.162600090463905 1.4409934958406152
H -0.6559674997798182 1.3537575410074922 1.1994040440086287
H -0.8952972763118356 1.23377409512164 -1.150168397270455
H -1.9054710294495583 -0.33878703034766217 -1.0035537849655238
H 0.34530058164661565 -1.430868006090341 -1.3524481498822722
H 2.4370186180693048 -0.3365832901163014 -0.09030117881940282
H 1.4521462238967893 1.2707958314283128 -0.32453223877221066
H 0.629847508286287 -1.3251632926289914 1.3238851043895545
