50

C 4.4416377003627385 3.3892801349673256 -0.12014044620933671
C 3.7630632359775738 2.738237907822441 -1.0586264928615343
C 2.3888345491093643 2.2355032130774126 -0.8619243346147278
C 1.8010081338468107 1.9353629403914279 -2.217108057466431
C 2.504424059617234 0.9473222395429404 -0.04009119943675515
C 1.2087138153190227 0.36653563494905467 0.21267532549194584
C 1.0477506140202133 -0.8488441276240053 0.7904655634108582
C 2.2809232057176576 -1.5174739800996786 1.1345484326034603
C 2.734084262332946 -2.6190229976473085 0.28165801367629983
C 3.949017854685496 -2.5711044777210112 -0.327506968598394
C -0.3534014734278831 -1.2825962295103366 0.8901935474278531
C -1.391027541270306 -0.3726367314434166 0.34505839243763187
C -1.3629328767260558 0.8885104068241874 0.09892768741458835
C -2.5527897732149363 1.6205920813457588 -0.46766772227165665
C -3.809649917378323 1.171978956353094 0.1780632976069123
C -4.234511898500331 1.5759426940916097 1.3459786271299647
C -2.6259195606078936 1.5270824926407403 -1.9175269304520164
C -3.338871723341887 2.436695825930178 -2.5282324404915806
C -4.071668193956261 3.3799113846620936 -3.0644436656881324
C -0.797949649284849 -2.4246311565155065 1.335008177165389
C 0.0014373976584960337 -3.5441385788969777 1.835881870485281
C -2.2673622688669033 -2.629299286735519 1.4478205206937707
C -2.7538398665661497 -3.778691855620962 1.8588333101329575
H 4.054433827255438 3.610201614965069 0.867469132933457
H 5.440649128750041 3.7165065457151214 -0.36145542479198034
H 1.7714625907434445 2.9791138176813017 -0.3611638115422178
H 2.3191529596028375 1.0781657898828716 -2.710821599704637
H 1.9978048793950036 2.826448833930583 -2.868692509058224
H 0.71952616562836 1.7775197430648986 -2.1933139737228005
H 3.0048729057913364 1.2355637827831312 0.9140152180277492
H 3.185746820193906 0.30250514891972285 -0.6554510665798293
H 2.39533110251084 -1.7187952469585093 2.2457466293210886
H 3.128261761758686 -0.7273565971743732 1.0163740931349705
H 2.1196896794658593 -3.487610640526151 0.10843988272784374
H 4.270545812798924 -3.3871154689832235 -0.9518971357115149
H 4.596267465350539 -1.7204958419334988 -0.1908762094566677
H -2.331300767833859 -0.8699446406049111 0.045350713143543796
H -0.540325076532741 1.526075818152184 0.2905153383724682
H -4.392737539395525 0.4555347315222744 -0.3911592477870853
H -3.7077959483485854 2.2875755927772494 1.9703371800686302
H -5.166965793444529 1.1893926125841958 1.733225260758239
H -2.1766111880883723 0.8136583232688913 -2.573678493543742
H -3.540447372840953 4.266355147853716 -3.323485623133143
H -5.100849169045272 3.1444986227460285 -3.1727644517136757
H -0.5776285437707318 -4.011752677253909 2.718275923292561
H 0.14969863769031957 -4.348421733566254 1.0780469043633703
H 0.9143583908608423 -3.193335940682657 2.313942337449079
H -2.993217856598232 -1.8579838807705649 1.2373128323400393
H -2.243879247089681 -4.657101656868362 2.1464847842113515
H -3.857013710314392 -3.8537182913088457 1.9173788090153148
