29

C 5.429609510092262 -0.7236997791852934 1.3040840259886783
C 4.955914658321986 -1.5548779546304274 0.40792186278991005
C 3.9687759276995975 -1.1545077845599716 -0.5181111703056285
C 2.92635939985048 -0.508345707329731 -0.09053432025101513
C 1.633912327943164 -0.4237215836623173 0.31097370946632097
C 0.6698771364612467 -0.30505469860178663 -0.7620439462928061
C 1.1584523726082532 -0.9965450943929856 -2.0434693084050695
C -0.6254643166430595 -0.7953898373244471 -0.3977003300198898
C -1.7804137609713175 -1.2359612294680256 -0.0771633123136723
C -3.1023076171536186 -1.7242101254489268 0.2886117029228312
C -3.1535755985311344 -1.1600691071972493 1.7522359522935653
C -3.199707737616936 0.09077266480231602 1.914073742915194
C -3.24345056650253 1.3032848765568144 1.3125285350712406
C -3.2981982876373315 2.4031355718305307 0.7497154466667724
C -3.3801332917557816 3.7189914063375538 0.09803706808514198
H 6.203042570290223 -1.149911660904715 1.9729677471517972
H 5.09730922411229 0.26261879145342754 1.4099945963177123
H 3.9679270829161126 -1.3493410410480517 -1.5915483767635823
H 1.5546220972674862 -0.44583140012135253 1.3454027696039477
H 0.6024575475684609 0.785202793097202 -1.0425522814838275
H 1.6255299762273518 -1.983223673570587 -1.7881317259191505
H 0.3107761900796381 -1.1181232171292799 -2.6949462442876144
H 1.9113862164256847 -0.28721036769446656 -2.5005175754198685
H -3.16618257689123 -2.8089622552610463 0.5005184334221903
H -3.893504820388199 -1.2946032345467244 -0.29679522719301127
H -3.1958955336531223 0.26696827848636484 3.117139350486118
H -3.8235950774844274 4.429948191580351 0.7869564749989518
H -2.3125848098947355 4.099268171606882 -0.0787473087398985
H -3.840938242654376 3.6593990063077944 -0.9148733333654209
