20

C 4.261994951419954 -0.9805800278330691 0.38330705144837784
C 3.087085424944335 -0.4475582398793932 0.6110623973031521
C 2.6081684298035004 0.6987968656476282 -0.08982754727702548
C 1.335350549335498 1.0082440183785282 0.11048952543859519
C 0.05901620923383006 1.1750593108263279 0.3023499984019661
C -0.8285395239073993 0.4590102782506386 -0.6154288666483054
C -2.0762786378338727 1.167231146327918 -0.927887603535869
C -3.0777025834438456 0.4118363748501441 -0.5525420758634282
C -2.6637603333641224 -0.8657703445788067 0.04427222931090917
C -1.1750063586783754 -0.873350379438133 -0.043828602747946255
H 4.898609056474884 -0.5276405135350299 -0.3737963601335512
H 4.546373725262169 -1.8428532312955836 0.9546437482231692
H 3.089014850910338 1.3601496822394772 -0.7536039952470858
H -0.1808423958911455 1.8194783363984577 1.1153168161332463
H -2.1329911665630803 2.144161603678821 -1.3889684648902623
H -4.1292091508849875 0.7149403885272095 -0.6769177010949887
H -3.0561967144106514 -1.7363301707218293 -0.5580170512480307
H -3.0170115752236986 -0.9422391957379689 1.0990596633604064
H -0.7850604887546777 -1.7207564012140384 -0.6442746549588143
H -0.763014268428638 -1.021829500891321 0.9927710026110809
