23

C -4.129632892282817 0.75242036845423 -0.4236858298312157
C -3.4679274225611656 -0.03984562655543589 -1.245284022957505
C -3.1976140298496363 -1.4366481437182017 -0.8329787106925629
C -2.118537264699741 -1.4908216077430996 0.184419486031528
C -0.8767780963193608 -1.8813130895803636 -0.10192460682145747
C 0.08139060088173933 -1.89430294754912 0.9573872646775957
C 0.7659310361416016 -0.774409008843876 1.1241755649756733
C 1.4577323230161958 0.3281591905582258 1.141245440211823
C 2.64459437241629 0.3761596342317956 0.30307334051168777
C 2.8473024436354977 1.7832215639297186 -0.15424860987328992
C 3.9892888830572284 2.403629194120281 0.17621967416827744
H -4.334878711931241 1.788908952617999 -0.7199564480875266
H -4.476733502147024 0.4197900773243506 0.5287664511217106
H -2.8974350193481526 -2.0230039556261517 -1.748821990326391
H -4.09090111759253 -1.9046558714918786 -0.3707513013184375
H -0.6690956018176852 -2.16584551372468 -1.1232845734706998
H 0.351242903719611 -2.643620169524213 1.6435449171586578
H 1.0555012193276156 1.0818282261559686 1.7855562452458018
H 2.54312694705625 -0.2715183504179226 -0.5875823343826063
H 3.5159508224110048 0.024559451019065946 0.886556627046192
H 2.07575549818762 2.2441386994002794 -0.7276677641904168
H 4.186884094237665 3.4236649513792043 -0.12970811230080248
H 4.744832516247028 1.8995039757380694 0.758719169641273
