22

C 4.77170291701193 -0.6244077100910603 0.7630038642730472
C 3.8266269142878033 -0.39799587713043605 -0.11215877133010714
C 3.1332738739101487 0.9181998061179913 -0.11793900824764474
C 1.685334415278918 0.7674998409227629 -0.4471939328518509
C 1.0242145079561824 -0.3572837976190508 -0.17747428648561162
C -0.4124668928733279 -0.41060403173328 -0.5424418861930349
C -1.176847782925099 0.48865434358746956 0.3113869609565654
C -2.45798935211566 0.4318394228049095 0.5553398769201459
C -3.6626131284760644 -0.05653749105645742 0.6519939558202209
C -4.5742291518585665 0.43706361316764447 -0.3632406178990665
H 5.054097926837835 0.11565746254965972 1.4713766395982
H 5.268495190957501 -1.5851267247257064 0.7573791739402478
H 3.2783968364398337 1.4218313827233562 0.859863784430975
H 3.6164102484751783 1.530841299115042 -0.8978126063579046
H 1.2139426676965155 1.6333235749122097 -0.9183184951080415
H -0.8261486667661386 -1.4431068706129127 -0.4661245374429272
H -0.49087827638826326 -0.03160265578640551 -1.6004922883822885
H -0.6998013379779383 1.2736980971565348 0.7998715739707977
H -3.989308364585306 -0.744791616752306 1.371338312293418
H -5.614940782652419 0.40595270763606905 0.03908467907347644
H -4.591255242019806 -0.2668951043923276 -1.2439312724809743
H -4.376016520214233 1.47780196810084 -0.6935111184974092
