21

C -3.9444171983593774 0.3846912310882136 0.9958111483667414
C -3.024879466700988 -0.39819954336709523 0.4547356881278688
C -1.998879795436391 0.1755323909991506 -0.4650594378292834
C -1.1824582694071695 -0.8203304684515103 -1.111708934695817
C 0.07778077570887007 -1.052817686452146 -1.0696694037096917
C 1.1728194862716066 -0.41562317847171415 -0.3574733319189448
C 1.1938449906395194 0.5983534791386719 0.47442124358084303
C 2.5662994864989224 0.8889101405152318 0.9493197551867554
C 3.379067529983198 -0.11295275401897009 0.272155589586372
C 2.593198080335482 -0.8489379429167907 -0.46511715209265697
H -4.707074900143885 0.019490426452509656 1.666144917862287
H -3.9502822498636427 1.440311642364098 0.7698061106146201
H -2.67607067028048 0.5827032549021429 -1.3261487512180328
H -1.490150112161179 1.0476797158147106 -0.1460066754015394
H -1.7430982833739699 -1.5592422616292287 -1.799887327977488
H 0.4590054985655311 -1.93148834069241 -1.7070742803559313
H 0.32460821110124327 1.1871378328740132 0.8204167442762524
H 2.6534239519655065 0.7542349456473787 2.056630493796813
H 2.8322970538993983 1.9357800483236467 0.6688402896054915
H 4.4778093288360035 -0.2078743603578561 0.3851453264655366
H 2.9871565519218692 -1.6673585717619963 -1.0652820122701576
