30

C 4.830950222056489 -0.8086135510677491 -0.6194420435831128
C 3.7698701801536125 -1.5703372470930015 -0.7089064108618378
C 2.880708657920534 -1.6794580372001393 0.48570142373507935
C 1.8782952497583327 -0.5950829914530156 0.37864120395684986
C 0.5975686411763408 -0.9056643804579576 0.3201614726027747
C -0.38198963982790396 0.15068400586909034 0.21569401173355288
C -1.687846383743312 -0.00901717276615587 0.14902441612257492
C -2.3317043833414997 -1.3115559919720552 0.1729132040282518
C -3.1335383718125343 -1.5760902189226342 -1.064687654080751
C -4.206846760810677 -2.325750162515033 -0.9878304082132726
C 0.1852528923170612 1.5533966860352755 0.18287736332330384
C 0.06433012227013747 2.157114450578444 -1.144731967339501
C -0.6427664427775293 3.2643862966694512 -1.0350952163716038
C -1.0178391206836812 3.4401419252983607 0.3604059225825257
C -0.5443794135541065 2.450418602307046 1.093827536819161
H 5.094625155125601 -0.2609741220941725 0.2625056652441767
H 5.496309225117806 -0.7143213930543273 -1.483072366818319
H 3.438697705665602 -1.5309917393471024 1.4296378808376493
H 2.4021236139146227 -2.6670549050047585 0.4411314603022543
H 2.1907550517144934 0.43318912398897463 0.3489222222703597
H 0.26272187819476067 -1.9279609134133442 0.3480123662939426
H -2.3475577935773253 0.8744003564287335 0.07068334882251925
H -3.0396600874095223 -1.309321597557081 1.0391820471664164
H -1.6667053882241343 -2.179757004986567 0.2810470621272586
H -4.768349468249332 -2.5010970261299854 -1.8978602773079867
H -4.588390636980949 -2.790611287332876 -0.09124751417369183
H 0.46568286316044266 1.7975276971177303 -2.080650154469166
H -0.9382365296947448 3.977191386712051 -1.801883255486666
H -1.6085019150623396 4.266486760390748 0.7723868978438755
H -0.6535791227964691 2.2987224509714017 2.1592357966702402
