22

C 1.7237006797131795 -0.8615845175627963 1.8014655596454519
C 1.0128696020685508 -0.30790481724258917 0.8328553616966065
C 1.6557123509701306 0.535675923034642 -0.21041322415359157
C 0.5801580229681113 1.1245026675679122 -1.072456657007388
C -0.31517271849845285 1.939970386046248 -0.23904466440393068
C -0.0681736364882659 2.3103458318640078 0.9741943662059853
C -0.11041312089849213 0.10450930794068719 -1.8555249385019106
C -1.2200132756015323 -0.37840818788591196 -1.344284227685341
C -2.251351151653478 -0.8551755558499028 -0.6985178485830902
C -1.9925961947550928 -1.969355584370696 0.20200651794908564
H 1.1900635072275014 -1.4617497499669878 2.5245941236361573
H 2.789462832501717 -0.7586987425654503 1.9216124952424112
H 2.2367905635313656 1.3601070642043955 0.23669886233986712
H 2.3883676398199114 -0.040181491612317786 -0.8153402917373469
H 1.1111861569158248 1.7904388236153825 -1.809882371641366
H 0.8220733767374714 2.050524734515178 1.481219748144507
H -0.8077237175400804 2.9189372017586948 1.5050250307834532
H 0.14108053660801648 -0.32442719091603794 -2.7923062962328906
H -3.1630248289136382 -0.35196360978050995 -0.9219216542126796
H -2.8956757625982146 -2.5931107867908043 0.3737418500003789
H -1.2528359697423588 -2.6534880936079914 -0.28737841936505953
H -1.5744848925094046 -1.5789636124583244 1.1476294300934766
