31

C -3.875722591918836 -1.9271529888926062 0.29651061608973905
C -2.9748692047878365 -2.0980594379789967 1.2275255330486843
C -1.6049693057752923 -2.3249986002156913 0.9017675505767582
C -0.8420734280675254 -1.2510552334728269 0.8505914825949198
C -0.18023820475214808 -0.11991366379429344 0.7366224569042455
C -0.21090694651282677 0.4848026891132891 -0.5573785014056354
C 0.9635273553622664 0.3793678496082288 -1.4154419362469144
C 2.0477726110195835 -0.2553824757942446 -1.0323638675112774
C 2.08246471203698 -0.8691267074452693 0.27765551884871065
C 3.1250314675099 -1.5277325516651619 0.7515346095254886
C 4.324258709468433 -1.6885793596137826 -0.008342556870695104
C 4.987539365076407 -0.5910130265718456 -0.2946645478280336
C 5.585237258800653 0.555046154957039 -0.5359794076636724
C -1.2703055671843977 1.1489268126371086 -1.027732453086198
C -2.5052464885571557 1.3068797621850712 -0.2284745181183995
C -2.6910936945444064 2.7514029281621513 0.1676798492778329
C -3.7638676546170013 3.4107625758082687 -0.2092722773394777
H -4.930868631855904 -1.751540847472483 0.5041696374990691
H -3.5603443729261373 -1.9612422558666651 -0.7376635241993499
H -1.0811421383491353 -3.215537013501353 0.688760064672019
H 0.28538115125282976 0.18487936991089043 1.6320268105917812
H 2.908208785076238 -0.330734346370366 -1.66518311655196
H 3.0356059155513044 -1.9443133502563372 1.7454472387051345
H 4.770558830931131 -2.5698457057903528 -0.38388689492054356
H 5.280444336828399 1.0298346168470458 -1.4309417463152416
H 6.289329581684821 0.8457933167515523 0.19949184496882172
H -3.411101774760561 0.9687716533458377 -0.728950415412087
H -2.3999419308716923 0.6980847413592923 0.7108018153919622
H -1.9444781868548602 3.2583714925828673 0.7650461503971048
H -4.55649031505213 2.9619266995156 -0.8124631909266483
H -3.8816996432110735 4.4413769019180664 0.08170062250642844
