19

C 4.03266699520988 0.4469670470484453 -0.5862076101018496
C 3.6726107762643028 -0.7242423100522883 -0.12322834071676265
C 2.2947086800943994 -1.0897777386267733 0.03937045542033759
C 1.3346656520169466 -0.25440485423835074 -0.27345276102483307
C -0.08619985881815127 -0.6367431968017438 -0.10366968330805695
C -1.0747945426504149 0.17728562578475196 -0.407759648229947
C -2.478118118558961 -0.2506290748073978 -0.22040070015995586
C -3.1102878031123815 0.7353969543812396 0.7691496855025505
H 3.403357763125668 1.257812007310145 -0.8941668776976214
H 5.113046249435436 0.6549964918005486 -0.6829710145619213
H 2.0522345323709663 -2.0683284804265676 0.42537340360438763
H 1.4960350234966102 0.7361852454877049 -0.662992067244692
H -0.3035060313615096 -1.6291455173400184 0.28739864566440104
H -0.858485283204633 1.1597234036387989 -0.794942916513143
H -2.5620877191650075 -1.281979365713849 0.13877890776627813
H -3.0495955634416836 -0.1865315756587602 -1.165654695005089
H -4.082042881547768 0.3346219741957523 1.1382636697536797
H -3.3683913311514533 1.683301690218667 0.2288255433549009
H -2.425816539002397 0.9354916737994925 1.620610171334118
