25

C 5.183613007638444 0.01573020025970783 -1.7297727343468043
C 5.059553854945518 1.0673569967209908 -0.9422778632529492
C 4.0820877064506105 1.0531037019425769 0.1231216571811959
C 2.9427095379879926 0.45428358479162223 -0.016486810780744352
C 1.7996186000993368 -0.16420258723768547 -0.0688954162510443
C 0.8166640096602348 -1.0336086028661442 -0.056092996575178626
C 0.46749677523533184 -1.796129593884022 1.1398446797360118
C -0.7731518464063445 -1.8621397327353832 1.5315216828538625
C -1.8522220231713036 -1.1801279708669639 0.7930877365342396
C -1.6424716828113604 0.27467472496285994 0.6678387641449689
C -2.5608913165081058 1.01581449237017 0.1175129303024245
C -3.7992295105724474 0.4329667717323934 -0.3800447838071822
C -4.733109048702273 1.1776404359093313 -0.9382678977150735
H 4.54363686973464 -0.8383590843689406 -1.5552912447483127
H 5.903355725008869 -0.022262839441289796 -2.544274472406685
H 4.307142292893394 1.5493979348501776 1.0476526965877704
H 0.2405553475154548 -1.2016391206743489 -0.9454723716589911
H 1.2505718944167603 -2.3055219679551233 1.6968021072013417
H -1.041560051131169 -2.423941328054235 2.415296630495316
H -2.839822091626148 -1.3478244770567067 1.220136160317247
H -0.7367631706829408 0.7128955756770563 1.0299273438220067
H -2.411739622183471 2.074821954138196 0.024649125693012107
H -3.995869013502515 -0.6424305787334499 -0.3071624363097541
H -5.635579631279122 0.7167606702739812 -1.295291681021137
H -4.574596613009238 2.245563492418231 -1.0280608059954106
