31

C 2.526134757740544 -2.640053207569433 0.6404216680514413
C 2.786650620833572 -1.3910282519130162 0.4688706231966448
C 2.0694712617304343 -0.2869443571712383 -0.02447670581457427
C 2.717028128512027 0.8970007742800657 -0.07513892065408143
C 4.09766979651227 1.0229324257872308 0.362431892451943
C 4.6892091469886275 2.1900039419433344 0.29669796372216994
C 0.6852221778586933 -0.3360222775263466 -0.5009378636686602
C -0.31021301233505133 -0.7024340889258105 0.5535235118991702
C -1.696859204941336 -0.7477348234531244 0.022429287186144554
C -2.38668990120479 -1.8681196987307551 0.08286700888182773
C -2.2517359622581954 0.4966900086506918 -0.5634332985997171
C -2.583006570272899 1.4095954737183283 0.5421563990717353
C -3.876557931962814 1.6627378542412297 0.5200069309066364
C -4.4625202753826265 0.9352875984981884 -0.5934894702829634
C -3.536727073332863 0.25410196206191527 -1.2328212097902598
H 1.585109878389698 -3.116273957790406 0.40065729651948295
H 3.347014271191893 -3.264305329264221 1.070997459326143
H 2.1931338097884834 1.7746441165718825 -0.4516457863107784
H 4.658744095098688 0.18255340536867004 0.7430595200092848
H 4.170690832763548 3.047644656276208 -0.07349002501354998
H 5.72107840526611 2.351708683861634 0.6083609689122682
H 0.6523806711625143 -1.1083265633329866 -1.3094682574937722
H 0.40807282000387496 0.6511003954086452 -0.9806193699102923
H -0.009402296344504197 -1.6247758402109653 1.0535723187484103
H -0.28243825529899935 0.14222846493011346 1.322689473815481
H -1.9044794758588655 -2.739902562303765 0.530009206788778
H -3.4099606740117365 -1.9496451180685466 -0.2948248039011229
H -1.9130320140313692 1.843237433052551 1.2936509718345808
H -4.40413789028987 2.3190882611880723 1.235723240847702
H -5.529456428432819 0.9661893936931852 -0.8448627018962941
H -3.7503937078821385 -0.37117877327132154 -2.11060000442983
