24

C 0.6117001969094582 2.8826230581520185 0.8101707462313186
C -0.03580566150871303 2.077596243203315 0.0018397970114136246
C -0.6175015039762946 0.7655688730853117 0.49246589681066155
C 0.554335853698977 -0.11003354668654731 0.8411589110727756
C 1.45428889666913 -0.5461856682113742 -0.022501013753864582
C 2.5538440654327212 -1.408639446670809 0.499448555542717
C 1.53888843233432 -0.2941562456589115 -1.4971087419774132
C 0.20012938326050939 -0.4956923010885939 -2.064575547559338
C -0.8552146349399735 0.22696397717753367 -1.90920551832701
C -1.3432468377796665 0.18862892106649856 -0.6593910595591551
C -2.608979382110265 -0.45516438255586167 -0.5487141731089964
C -3.241083833186302 -0.5936155468531528 0.5870217620416576
H 0.7830973344864212 2.689894914783633 1.8627699267956566
H 1.0003015021106134 3.803543015216869 0.3906501923224814
H -1.2670471671530756 0.9597292840284068 1.3558466494203303
H 0.7062107746698976 -0.42600064090173606 1.8560755539953715
H 2.689152748234108 -1.108244132065837 1.5731206422144983
H 3.447338438646798 -1.2365216908703065 -0.09734919246325445
H 2.1753072418608785 -2.4524528416338027 0.46473711927149386
H 2.308549416242998 -0.939840148372192 -1.962046213074612
H 0.0829184861732837 -1.3531094351683477 -2.6884141874682057
H -3.1200061354029556 -0.8734680275876417 -1.4389559008618826
H -2.801139507985606 -0.21071710554960224 1.490554125422334
H -4.216038106687241 -1.090707126838874 0.6624016700011086
