19

C -0.8505341347432542 2.423981738174983 1.331775894591588
C -0.820442266539805 1.1341060251697754 1.0314415539635373
C -0.23030446247167496 0.6466756267839965 -0.21236404564047123
C -1.073321753259374 -0.3731274674934629 -0.9366909135147293
C -1.3403647606059386 -1.6046539147348127 -0.13117262137393343
C 1.0924694211812962 -0.0023068153053304157 0.06963780264261839
C 2.079512752032746 -0.4541871305581924 0.8288819153734338
C 2.2703073737115833 -0.634455214286786 -0.5989537997605108
H -1.277148253542825 2.8245460211681914 2.239956981437594
H -0.4211827560234061 3.120175812848664 0.623577978696279
H -0.06758192694733724 1.4883716246884586 -0.9302193327634929
H -0.4783740149635416 -0.6619983959229138 -1.849749722193062
H -2.0554032847798096 0.05256338589536783 -1.2444436559851388
H -2.385097540773546 -1.9972255032672916 -0.302511092901601
H -1.2258752997869629 -1.4277962037362941 0.9577002196282516
H -0.6638218093993702 -2.4282950605943876 -0.41430432972365683
H 2.4766526863733698 -0.5940071503801118 1.8459196699706168
H 2.0322176243883434 -1.5635747258154025 -1.1193791772588035
H 2.938292406149409 0.051207347365528844 -1.1891033251885423
