31

C 6.2901965784583735 1.4920341732091247 1.4121290914233993
C 5.151818079130793 0.8519964277302211 1.3450468551674233
C 4.245087294414032 0.9800895105803222 0.24138903986783256
C 2.97477761758804 1.016158703180086 0.552376788749183
C 1.7131160222629491 0.9379896079700897 0.942550598485881
C 1.1638111341429525 -0.3788820845447794 1.021058721950927
C 0.03185140365010631 -0.6461880420598516 0.38887663465591615
C -0.5607428631592751 -1.9634474917745808 0.4400113630936349
C -0.8286102066696917 -2.5043053684613885 -0.7244224368994919
C -0.9701401922099064 -3.0075983482143003 -1.9326051876433288
C 0.17908172658747168 -3.727809921624156 -2.4591183457524535
C -0.6511542274915707 0.364971349806218 -0.37310734917091853
C -1.9495264297092867 0.43458082489916605 -0.18820981769542613
C -3.226485701314404 0.4969077532088103 0.14135512359161717
C -3.549555936144019 1.3399068801409055 1.2372270209763758
C -4.390037637644428 2.320981013063589 1.0009865945930234
C -5.236011081096751 3.276204255803086 0.6791214657478224
H 6.588367277097787 2.1519116526409108 0.6192779249849084
H 6.939196348515906 1.3649863128718989 2.260286139499534
H 4.438675220488364 1.0494351988986543 -0.7930981234791856
H 1.2859808156236225 1.8786716665492817 1.144738694299282
H -0.8133292178753376 -2.564902560964194 1.2591256625303773
H -1.9182043817920738 -2.810050503228383 -2.354188813129117
H 0.5322349552273311 -4.513930671756127 -1.7332964626746163
H -0.09656757216929716 -4.2505450276477035 -3.393118599821104
H 1.0209665066534148 -3.036863645390996 -2.5871499396035493
H -0.2854162790963475 1.0686699176801728 -1.0612743374740665
H -3.8349800194946324 -0.10818316832516647 -0.47674322105486777
H -3.2096874172113408 1.3019435041352263 2.2465392963428275
H -6.253637410230532 3.016238555984037 0.7982307970814253
H -4.781074406532456 4.169029525638978 0.34600482135662897
