26

C 6.835210566125475 0.33435821392322707 0.9124636516199386
C 5.717513315080033 -0.32041622791618496 0.653837179367285
C 4.475261913478947 -0.013297655273795969 1.2879565653288767
C 3.3968951122751765 -0.36368571730214044 0.6205793005293881
C 2.3676636060944416 -0.649754152051897 -0.15923617311330168
C 1.9672991373349313 0.3756327481074721 -1.0623287102203383
C 0.6933267624280962 0.5956243630857757 -1.3087847314729755
C -0.30585013914873527 -0.2092664250140929 -0.6581555267514416
C -1.3954733196162394 0.4153161110106253 -0.29595140581681517
C -2.4962129323338726 1.1015560977445695 -0.06228536110338296
C -3.4521409975025414 1.130534853273819 -1.1202884775113664
C -4.631962607610301 0.5663053492815172 -0.9400202844284534
C -5.040237677723514 -0.09928283848262776 0.28731086152041874
C -6.216947053582411 -0.6429417997892667 0.41982077612861923
H 7.754155790963775 0.04881317641012057 0.3914116817662955
H 6.913267897751446 1.1429430923742523 1.609861335955443
H 4.26760926970279 0.45324551338735347 2.2107506691605745
H 1.989667068678156 -1.6190549744561367 0.00875046793120544
H 2.7019145904172546 0.9880783075587971 -1.5585375960187207
H 0.4171224629825566 1.3879858198053432 -2.0051742421017607
H -0.29982885450848307 -1.2374030997212588 -0.42475211573218086
H -2.5126401820788 1.54051921649973 0.8915925108277638
H -5.332598994704991 0.6045846649358023 -1.7576647067164004
H -4.337910286952173 -0.13820020269206976 1.1083011981393072
H -6.514524798249054 -1.1332943599621852 1.3273427704344576
H -6.9605796493016685 -0.6310777569687389 -0.3767996377229411
