20

C 4.7822572164399775 1.0438529225478939 0.7739095572990506
C 3.6488018697476257 0.4510742519803077 1.0750228425562485
C 2.6348363093327567 0.22992964674333308 0.05250821733388594
C 1.5043162327465516 -0.3649185074634012 0.367927378151837
C 0.4586471201010113 -0.6006767545553591 -0.654378192684283
C -0.4764215340461472 -1.6814862636655632 -0.2643594387977771
C -1.774911614654586 -1.4200205805336295 -0.13488094683950966
C -3.1341330755854178 -1.9669534836098492 0.1925551962776728
C -2.9131319262649154 -0.5537313316487499 -0.170379534414267
C -3.3451093230672484 0.6492314984899635 -0.38828732029588775
C -3.899011117266156 1.8491690158103227 -0.45075746066078276
H 4.998350892738418 1.3809094780234592 -0.21976005828999973
H 5.511327286952148 1.1942064358126592 1.5453171962246952
H 2.7906204072289937 0.5457152835816015 -0.9680592257747488
H -0.10680322239361134 0.3637527708073241 -0.7559564655046741
H 0.9100619090318701 -0.8024629076357721 -1.6500986420211936
H -0.06952361666806746 -2.6662178416200226 -0.09380737280297911
H -3.3085036560534116 -2.219977858411869 1.2616580291966062
H -4.255302176696112 2.0998729104196197 -1.4240485028376864
H -3.9563679816237016 2.468731314927725 0.4296288940469705
