30

C -1.4819470519037556 3.003550571759656 -0.7510589406348588
C -1.5165528264020478 1.672724850041995 -0.7747108390347889
C -1.3901899692997646 0.8582865104340766 0.4658775722587199
C 0.04930129029202429 0.8255194332817781 0.929082991657931
C 0.7707064357272423 -0.3938948721286268 0.5176145261588527
C 2.0194996114965655 -0.2766112847075914 0.1082791636341415
C 2.9253438906299367 -1.3558164478852859 -0.3469691723466777
C 4.097361920698602 -0.8440474626811141 -0.6761659784904375
C 4.038496145764715 0.5901404477202913 -0.46083194717563714
C 2.846928200495425 0.9282178477321653 -0.009251183784689426
C 0.15971036680365575 -1.740138717864049 0.5438469340678306
C -1.321114282534192 -1.7667538304875798 0.4110022203674089
C -1.9689011732128463 -0.4697370446486197 0.34166313460093406
C -3.259132684626974 -0.5225799793385081 0.13760524614614048
C -4.575253797715756 -0.5326009998100728 -0.01401604731167319
H -1.5790744994713861 3.5370877965165954 -1.6857831989541718
H -1.358910980853853 3.5189855110633146 0.1906803475352
H -1.9567444905971412 1.4073055463897357 1.2647744838962949
H 0.5496380504539873 1.726543167293637 0.5693334776929875
H 0.08455328809457559 0.8545748578082414 2.050901643888038
H 2.6858583926415207 -2.4084113491288583 -0.40870698562346597
H 4.947818596812988 -1.4284355899473737 -1.045190036302244
H 4.848633633729784 1.2615677929286089 -0.6451242391258454
H 2.5437127527219365 1.9369488987772976 0.23148321054003324
H 0.653687571948407 -2.3573578440627583 -0.2644757421719178
H 0.5096862821455546 -2.233479574777558 1.4976766608605772
H -1.735023160984181 -2.3364457916052848 1.28848022470013
H -1.60392480989864 -2.3840834071602814 -0.49057151564066576
H -4.860315316919529 -0.5119379628824022 -1.0268043225901657
H -5.123851386036301 -0.5591210726310238 0.8806574694394622
