17

C 4.122880204318274 0.03137631465512342 -0.2751864281050406
C 3.1554836052090702 -0.2909211500707775 -1.079006628430605
C 1.7624844595454636 -0.4257895855177138 -0.7006899790741603
C 1.3435612791500677 -0.2309556922247361 0.5111812799134529
C -0.02425005504651414 -0.3380600433182967 1.0007942828542138
C -1.0637839035044974 -0.11530737667959648 -0.022472270566933187
C -2.266312541979247 0.2520013626339557 0.3279820835309245
C -3.369211643054027 0.49638841887180124 -0.6449330840435272
H 5.128230799538157 0.10512980793464706 -0.6582342604743776
H 3.9578333093672406 0.23056054731740816 0.7733282409873655
H 1.064112257767465 -0.6987888227973448 -1.4690936845488596
H -0.19138219181174193 0.2961318574625364 1.899099955428988
H -0.16721233607915492 -1.3953175261413024 1.371056077766629
H -2.5280266140058782 0.40194992955180814 1.3839756284378764
H -2.970779100646921 0.5188666717652404 -1.6740500602858397
H -4.1169863585829 -0.32534737997662433 -0.580594961179772
H -3.8366411701847554 1.4880826665322724 -0.46424064200522097
