50

C -3.2667548702529277 -4.758949280791994 -0.41976932237506315
C -3.3145158758717637 -3.418952427322745 -0.4985592359508495
C -2.195457884317062 -2.573355454871294 -0.02420509499095684
C -2.4913867772179623 -2.1339005037014847 1.3977959812787935
C -2.1672711283285806 -1.3043446706391433 -0.8867883596243413
C -1.0516767493814185 -0.48372924283336355 -0.40165909717652454
C -0.8676619342075795 0.8131598590553005 -0.8651370053663415
C -1.8375940619717928 1.285989506194403 -1.8418669773227845
C -2.814304135238763 2.2764294813571606 -1.3583730995912693
C -3.063497549440122 3.390688989857957 -1.9751609103197707
C 0.20935578200207206 1.4970403937721406 -0.22718192406286053
C 0.875527555511539 0.6942459544064663 0.8812079935982976
C 2.0529939773625223 -0.02217095288359622 0.4540154504145395
C 2.290163834453514 -1.268549803496832 0.887475742423023
C 1.3453666136080384 -1.8674900948540354 1.7840087117218029
C 1.5556756345010918 -3.105199939552195 2.228527893828051
C 3.4719717696356205 -1.9393841504958114 0.4343178698808939
C 4.585780188042071 -1.6598863682015024 1.0649251689508126
C 5.651915492382969 -1.3272189182105711 1.7671905102075496
C 0.7122499285593301 2.6812105369808514 -0.42663918008090457
C 1.878282105335954 3.1337969024426084 0.4433966979846406
C 0.3681321327030911 3.6454330810308835 -1.4465695957440832
C 0.9867572085816164 4.828891365360623 -1.4829069690989314
H -4.113792297093216 -5.300404888964971 -0.7832368930353499
H -2.377113499457119 -5.211613585206287 0.00557150110244262
H -1.2445623004925241 -3.109042648664636 -0.12979996320809
H -3.5523303444136176 -1.807309652622456 1.453421415715916
H -2.3585047264625008 -2.995742886620731 2.07465174365432
H -1.895819038533288 -1.2462776867492786 1.6860718538328003
H -3.1691060227568766 -0.8371097510523159 -0.738145615479407
H -2.0530663015145802 -1.586801754815758 -1.9472315492778094
H -1.3942832624859234 1.6085698396559394 -2.8072366107950337
H -2.487914995906549 0.39539855002694124 -2.1906558387964754
H -3.3777678444830044 2.082976731765203 -0.42320422033088834
H -2.572901103784494 3.6777979394600075 -2.89358246803189
H -3.7943914896955815 4.110969474256992 -1.5932595497806392
H 0.7899096481224316 1.1786521238169572 1.8026591374128718
H 2.7590056883929197 0.4504665751186981 -0.23324385899422168
H 0.46326760740235884 -1.3358172819448124 2.109320062500439
H 2.406094138959835 -3.675851402905544 1.9436466601551907
H 0.8435497715759576 -3.562117613138463 2.9051630490346225
H 3.58073766445687 -2.638938381568978 -0.3479756974767475
H 6.180431534938656 -0.49717781120771865 1.3810635653461658
H 5.826230697147864 -1.9349275747734758 2.614204238564716
H 1.6037052895606632 4.043922413819785 0.9962033494547335
H 2.7115767565491122 3.3725362370512744 -0.27101013670643287
H 2.153389059660029 2.3130158797967844 1.0925080207575042
H -0.3416834848196545 3.491340903943593 -2.220137323017738
H 1.7354928837986028 5.055633095085201 -0.7540096905993317
H 0.7657947148825852 5.574098893835534 -2.2198004305852237
