32

C -3.4470207727616615 1.1594504364474876 -1.7654756327731178
C -3.1335214223997605 -0.11726062310839272 -1.6115205082950905
C -3.9308985610809755 -1.0966338283120796 -0.8824650617589797
C -3.3548358277573422 -1.6415414730886975 0.3697644144327377
C -4.071122707478435 -1.5495005573720757 1.4937382949747358
C -2.062857972425723 -2.343674126571089 0.3561980846683388
C -0.9487339429339303 -1.3870100917365273 0.49745153002025555
C -1.1185425320408764 -0.11342694645153942 0.7105868992386213
C -0.022515089037247398 0.8001982572999715 0.8394648000919641
C 1.2252957906421782 0.4335219704887167 0.7543235672579093
C 2.263811370371358 1.4730458859587734 0.9051055213870148
C 3.5180986651361823 1.1166834213269086 0.8214791414136261
C 4.607565501132554 2.1284007056041174 0.9666652783088593
C 5.847338102279355 1.6073579056808611 0.30465134439405656
C 5.7577216514989304 1.0381417458272335 -0.8767753221631852
H -4.346544519200097 1.5269876862233778 -1.3334065091463756
H -2.7938857808887105 1.8122559513622225 -2.323026408676315
H -4.162843106912527 -1.9377300157829156 -1.5838961068470845
H -4.930356676736957 -0.6321467592061676 -0.651016586121547
H -3.669978779600137 -1.9391921326204349 2.4126355649261013
H -5.049863560237749 -1.0912550193107273 1.5070724089996805
H -1.9748690410064227 -3.065177844344519 1.2098778749192896
H -1.9352258757507776 -2.962031398190972 -0.5589370941674647
H 0.05075514507181682 -1.8319566115765025 0.4088899784766341
H -2.1119311099021627 0.2940762942290325 0.8370340413157404
H 1.540522234272358 -0.58976052986055 0.5793769467925546
H 1.9288651196026354 2.4839065022777618 1.0784053640420217
H 3.766325173466851 0.08371189122670573 0.6462589912224427
H 4.313234016078575 3.0335256894727025 0.36159648018563817
H 6.79501807986527 1.6987559332343118 0.7905057782426025
H 4.809518264922754 0.9464266436180953 -1.363437637145296
H 6.641478163810261 0.6618510372546934 -1.358546648305608
