30

C 1.2485167582145662 -2.337002858587767 -1.708076429820441
C 0.27060303481439746 -1.5156498345150586 -1.3971283789603393
C 0.43219599340945264 -0.1813528063450915 -0.9629920597415926
C -0.6248594192399668 0.5067448904917465 -0.6928373987879136
C -1.723226646481382 1.1384748295124552 -0.46650414990113476
C -2.278455352827708 1.0872284944748973 0.8559494525006041
C -3.228249970875596 -0.027946617199305548 1.1323798829892422
C -2.3575654774084733 1.8487146334926507 -1.4729890461058754
C -3.5790763433739703 1.482594933982939 -1.8282423225089208
C -4.78376757227642 1.0268519894269486 -2.0919362717178225
C 1.673695925074867 0.408627999506002 -0.8184855891806257
C 2.1679122338987966 0.5113627147248113 0.4114540150384841
C 2.583135651517434 0.471116591003515 1.6522201141838317
C 3.2960624331287334 -0.7109720149982777 2.03814357700446
C 4.370592138267816 -0.9901536519893744 1.3429622537909573
C 5.440667712541647 -1.2021802439001146 0.5944514142831864
H 2.288820741973563 -2.070231154435634 -1.6621749287324359
H 0.9781324034344073 -3.334958814522991 -2.0267101664199783
H -2.6199842349427547 2.0710622146162874 1.175021148933916
H -3.0246778301112096 -0.5667500117519159 2.076858883966847
H -4.248777629592014 0.4338276044943855 1.2761974922646366
H -3.2531169680399397 -0.7034181260913851 0.257708212021384
H -2.0218694415794527 2.6943132646029464 -2.055508981961164
H -4.81498872833761 0.2753504145738125 -2.835606869004735
H -5.555665485453908 1.4737444475691408 -1.5236386507095816
H 2.3651513913839177 0.8255933499754524 -1.5318623179953104
H 2.3333061906254153 1.3303534399204031 2.219530859883155
H 3.0836122019525374 -1.4033217718778492 2.810865759539118
H 6.322401752130899 -0.7512081979377959 0.9626016914178251
H 5.259474538172654 -1.790815708215989 -0.26324700149321
