13

C 2.6931978961852807 -0.32652201201111364 -0.3129866086486834
C 1.4133127579315703 -0.14414449691866496 -0.553994995608365
C 0.4546479638698353 0.06240853484077654 0.5759612467099297
C -0.6168563995957741 1.0013555170146409 0.25681264997883796
C -1.739552545299517 0.47855738663320785 -0.17616225101589236
C -2.823492760110844 -0.11857436764508775 -0.5968499911207998
H 3.0901759222682155 -0.3324603947097195 0.7104694336482562
H 3.3896406316651224 -0.4752713994843584 -1.1095563068773346
H 1.0437665056528063 0.511002836599114 1.4275616290450472
H 0.09875539295895444 -0.9077350542278985 0.9401408738547729
H -0.6227237282346961 2.0556174514949364 0.3237378584786522
H -3.510903747684871 -0.3807140669283978 0.16094929689594797
H -2.869967889606071 -0.2625829996341197 -1.6460828353403703
