19

C -3.5500620930712166 0.8136050308140946 0.26534434782153554
C -2.814975321989572 -0.20837739273258818 0.6835015542827192
C -1.6391094902122711 -0.6427162914969986 -0.07271490484624321
C -0.32462719328018885 -0.2966807970141413 0.6356386524897075
C 0.7749972583269219 -0.8158040966600035 -0.28232945750785465
C 2.1431472321025864 -0.5506702148413428 0.2775601862637763
C 2.426865541341162 0.9044353190474083 0.48614607491875295
H -3.277764696631795 1.3329268245429404 -0.645695140392849
H -4.428220171988538 1.1711068546973142 0.7907925777656825
H -1.6165768901769306 -1.7615401295311892 -0.17611664314058595
H -1.5626947234835105 -0.19238196676205177 -1.08934516647798
H -0.21617463618826058 0.8173686305232142 0.6451736275321417
H 0.6432399141404104 -1.928782051313523 -0.299596558389295
H 0.6452733094218845 -0.4718263149357884 -1.3167488359276684
H 2.2115629921842292 -1.0584451170607596 1.2565761284852948
H 2.8812014199953238 -0.9627040075093625 -0.41588354463954713
H 1.8806186762693744 1.355870067470733 1.333334711729455
H 2.307876167850762 1.5081139892729896 -0.43475812310188156
H 3.5154227053895917 0.9865016634890256 0.752420542950293
