12

C 2.176955479030772 0.9111309114386487 0.27144134774175627
C 2.3603310202855194 -0.3089667354154282 -0.1571312851212705
C 1.2814595955717523 -1.2526005955830184 -0.236770414641254
C 0.0468946330200698 -0.8081438916902041 -0.1770969068772011
C -1.1416066469289148 -0.3042693482117528 -0.03997244159847495
C -2.288084026502149 0.2685854199486841 -0.6289871835349236
C -2.241978353963092 0.0819843507871823 0.7547070238154163
H 2.9466018924520707 1.6539722586765697 0.3505630215161497
H 1.1784196772123756 1.2277465512273098 0.5788392955273044
H 1.377922372612944 -2.313675691143121 -0.34296811791439114
H -2.9317959210455657 0.6450418922849478 -1.4154810354515932
H -2.765119721745795 0.19919487768014296 1.6847727346734613
