28

C -1.3030637083510186 -2.0769911776558105 3.1498576389538564
C -1.2238848469349375 -1.5100823793605584 1.9903253223774078
C -2.108369575759603 -1.484762023422246 0.8836555950116821
C -3.2637264672691697 -2.169261596949944 1.0240452116254217
C -1.8900657529198814 -0.8143755808226267 -0.34119784880296394
C -0.9141124378618547 -0.08707429669897444 -0.7886492925824806
C -1.1581863857067423 0.4393705696634899 -2.246590864868298
C 0.28966920397719237 0.3173524734408179 -0.24459862532697596
C 1.1240710862631722 0.3584114580883056 0.6638949329423248
C 2.405958012470945 1.0641769557647225 0.6332510317798298
C 3.1303000083722115 0.94754636226388 1.762133499698947
C 2.8851200866361553 1.823869858791036 -0.4525144853439074
C 2.2065922170679806 1.9379168693043103 -1.5353910121325745
C 1.6685963963924526 1.9939649511575326 -2.7381483143373995
H -2.1603238298469947 -2.661020859378608 3.4239227638512664
H -0.48221104320984876 -1.948867749182995 3.8418712853770427
H -3.4554178090835106 -2.681727169701559 1.929104694478429
H -3.948518745998182 -2.167860587406223 0.2068386823943564
H -2.766506809911729 -0.9553757277144763 -1.0751259658208219
H -1.1075622560756473 1.5327411265909217 -2.131186806301041
H -2.1502999511535337 0.11149693944361654 -2.5834676718296405
H -0.37906708925058347 -0.023772918003649852 -2.8535797116982153
H 0.9212132647192496 -0.18755460105252422 1.6352516291410448
H 4.077387529215696 1.453702521632004 1.7731467415036635
H 2.7914950886487158 0.39185723670183137 2.594847366906034
H 3.8364442915164547 2.3581831987290167 -0.4609675389501618
H 0.8861146376490462 2.6986006981394497 -2.7775568734947567
H 2.0883548863774757 1.3395354476664225 -3.4430779928156285
