28

C -3.7257073051953196 -1.89171700923764 -0.02886202483066541
C -2.526397395346428 -2.3963584508734184 -0.16713178899989142
C -1.365794713266615 -1.743289895651065 -0.7771650317849589
C -0.7419979138411117 -0.6932155378325997 0.15501845396904967
C -1.8322023614493852 0.32589998118041713 0.42213833936461326
C -1.3836990640424012 1.4174681212248748 1.3142377882338259
C -0.74277191861891 2.458766155683378 0.8308754960591698
C 0.3417968152630001 -0.05226420056575581 -0.6201497187921051
C 1.5908737598717098 0.07487106902960775 -0.2571110468664858
C 2.1747620435723465 -0.40102341234676037 1.0128020661133752
C 2.500787737339214 0.7575196538245816 -1.205156867695961
C 3.7730894351575346 0.9172599450527698 -0.8974287795481359
H -4.04484318949716 -0.9098952943158792 -0.34566926008712784
H -4.480873824708933 -2.515815280942672 0.45112767187381636
H -0.5655157321114423 -2.5250536876595446 -0.8878132663187058
H -1.5577376658164548 -1.3165053358587409 -1.7725551197716056
H -0.4243153610656856 -1.2298640062241828 1.035076660601921
H -2.276522259734027 0.7034293915555496 -0.5186073427110155
H -1.590854166310105 1.3457698913587823 2.368434215563312
H -0.5493241535697074 2.5020728695705126 -0.23376334580314034
H -0.4228231164203464 3.2448944277683283 1.4925438529830992
H 0.01926161035452904 0.34536000754604235 -1.598244525381576
H 1.451046235870279 -0.944925025859388 1.606432392163895
H 3.066887355946527 -1.041753960103294 0.789990101757395
H 2.6035655909926017 0.48653928301648547 1.5575523731401844
H 2.1243165706101927 1.1315725392851332 -2.162084745203055
H 4.121980982479654 0.5400397035314486 0.052208829383771534
H 4.463012003535553 1.4102180578433605 -1.5655925956971146
