33

C -7.073626478132494 0.7543529299186019 -0.0013106328736116064
C -5.768263075007312 0.6484923205763768 0.1911967143819414
C -5.158005564712586 -0.7035480439516334 0.084511173540279
C -4.992826129299193 -1.1605779742450066 -1.3281150407851283
C -3.8750590178904174 -0.846169872171894 -0.6574173679980944
C -2.398082242005143 -0.7492285888777446 -0.7274983359935676
C -1.9886034348740598 0.6275661632537 -0.4738507739577513
C -0.7576177825945006 0.9315256339522279 -0.8305801274089292
C 0.5198821775166378 1.1087087927293344 -1.1238101451587135
C 1.4441375248659238 0.8116511335109468 -0.07601833675090859
C 2.528074161757077 0.06507543719275752 -0.18660694866603383
C 3.168273859296926 0.030932162288441277 1.116423114476308
C 4.295349608789532 -0.6086505404446726 1.4611930042984373
C 5.0037071758043 -1.3669824821010186 0.4791577895012312
C 6.048742104761132 -0.779503445855286 -0.06430169893972763
C 7.079000388555209 -0.12089970967300863 -0.5574451502141451
C 2.3606859997247662 0.8278423013624969 2.0083602678087087
C 1.3564674070206162 1.2777038359093682 1.2974495618024537
H -7.702009116198717 -0.07523968147169123 -0.2269394021458524
H -7.534166877548753 1.749734103731779 0.07542690024848274
H -5.48821058147699 -1.5003650000241373 0.772525035100582
H -5.535757918469321 -1.497978383340184 -2.2083851976713227
H -1.9603587761014387 -1.416156902878922 0.049249009639627604
H -2.037931650600951 -1.0331088883226631 -1.7221114052968844
H -2.510093180589776 1.4363832576729598 -0.04773970406277166
H 0.6713292694099626 1.448625517267503 -2.1073145132355244
H 2.9266346601097157 -0.4531130313059232 -1.0468921436480525
H 4.666368773599403 -0.5559559357234051 2.460193575307778
H 4.820696983899271 -2.3398449495980143 0.11271231979326035
H 7.9836943080040195 -0.2685653257940223 -0.031080440644236994
H 6.855185803774768 0.4632960335372835 -1.410092670888437
H 2.507401353060473 1.040936242956092 3.0500918525710747
H 0.5449802655510809 1.922480193598438 1.6690197178695225
