18

C 2.788441884507085 0.8588823418523304 -1.0654366802019297
C 2.683723614711053 0.3129789437602635 0.12073117920167938
C 1.463862823811645 0.30446447707780083 0.9354775362409936
C 0.5243195101483529 -0.7896763717406623 0.5909944945855219
C -0.6898567801264441 -0.48907571110476056 0.18535901223225112
C -1.6385573107263642 -1.5881553579026924 -0.16234917752594544
C -1.0695515595226914 0.9008362586936336 0.08841256446498263
C -2.22787958449779 1.3482203450006756 -0.2948937857277256
H 3.7399375831324284 0.8053770850033708 -1.5777849930082037
H 1.926472047167139 1.344592686937598 -1.4965085289842521
H 1.779463006958409 0.10416324081460489 2.0006967208820363
H 0.9252169821779546 1.2662998613252812 0.9732644308520497
H 0.79491386402966 -1.835261691488862 0.6589362225569336
H -2.20314148311605 -1.9550368808253644 0.7001880457817173
H -2.359803392048651 -1.2365025332383617 -0.9228881014632745
H -1.0282167434521965 -2.4250329495926235 -0.59824527965285
H -2.4056811517598704 2.4034302780539147 -0.3309494971451486
H -3.0036633113936113 0.6694959773738248 -0.5742431452235301
