19

C -2.1723784422123216 -1.127747033673902 -1.2715696104987644
C -1.1509355376094015 -1.0571955797792845 -0.4285770361802618
C -0.7254165248336519 0.2204878772407963 0.17797258201867644
C -1.0709426498620007 0.19706943883948236 1.670485410845686
C 0.6883035392606149 0.4335671093302857 -0.011470962213251007
C 1.5014183116359388 1.5763648144835745 0.437048092548474
C 1.3629906527035924 -0.47195291647978327 -0.6521394643139713
C 2.0172898629860523 -1.4470759079895992 -1.2567551241962265
H -2.6972739819529976 -0.23299704078351616 -1.5143018764037708
H -2.429868670381126 -2.0978678050232844 -1.678897700018486
H -1.291957286355618 1.063582522088416 -0.3066338448330582
H -1.1529420050625512 -0.8237883537044899 2.0604144325527627
H -2.0253094531184956 0.7774322131420288 1.8059533108144397
H -0.29624304300038484 0.7446748480448572 2.2531188104918183
H 0.7999393942028892 2.4543704683159975 0.5152251231402194
H 2.246827156619046 1.8509584819433385 -0.31071223694182337
H 1.9476181773758532 1.4477274514605383 1.4334384715904054
H 2.3951048997600752 -2.194348303989766 -0.619631627596716
H 2.05377559984459 -1.3132622834657195 -2.3029667508061333
