31

C -1.6280463500702347 4.870279834151431 -0.7663191215932204
C -1.0114492197827092 4.137232568275193 -1.683706558272951
C 0.1713099188422 3.421482727017562 -1.3164413419659906
C 0.08134239457410182 2.6794940184210665 -0.24132053026442152
C -0.1322057889783948 1.8740699178568108 0.77450874235007
C -0.6144727469716308 0.5782089755036177 0.4792147640565144
C 0.2508078850816077 -0.2445122860645424 -0.03862915252043145
C 1.1688665908291176 -1.1097730819255818 -0.44901028518941843
C 1.840855479392002 -1.8212826531851374 0.5792489688057234
C 3.162132892963594 -1.9492015747010205 0.5936970103806257
C 4.420028255945909 -1.8496963010955996 0.2562263859098868
C 5.174435125593865 -0.6716709604254328 0.7163063123114781
C -1.9254318625771987 0.019042008052169334 0.6657598126431346
C -2.2798058435545943 -1.2009716708972191 0.359390230081085
C -3.608199686404032 -1.6644758515267448 0.5828494029365511
C -3.8883310515167824 -2.8895719462533997 0.23821823506800913
C -4.070695162907431 -4.144257904958104 -0.14174563256707967
H -1.2699941380032762 4.947747762122582 0.25108668071469814
H -2.5329159092872433 5.4351200791220435 -0.9941525964322873
H 1.1177839679288728 3.3911888223434516 -1.776050267297254
H 0.09632482602468524 2.331277353836517 1.7098686540539338
H 1.2482890723809066 -1.1251519518268336 -1.4957267877667593
H 4.9033468032268885 -2.5928495675287744 -0.3414394162670494
H 4.942677271613031 -0.40108032495485724 1.782357253167768
H 6.2823689373189175 -0.8543174777943745 0.6558729092669648
H 4.983038592964851 0.22960109612645146 0.08352985874651633
H -2.6915052141235662 0.6762625086695414 1.1032317132227625
H -1.5046183577060157 -1.8270361274066256 -0.07018762674318003
H -4.426147788849175 -1.135814888702637 1.0033812503175732
H -4.387577650185634 -4.25071798973433 -1.144086001967448
H -3.872211243762746 -4.858625112515184 0.6107566781533859
