35

C -0.8237026238599996 -3.5972171364070054 0.9170657810791246
C -0.39106283390759344 -2.359928667257917 0.8488384927058581
C -1.1479489693057026 -1.3319322136945393 0.18504937171758473
C -2.3271405496658453 -1.6629224964535565 -0.37302405849873094
C -3.350272258776578 -1.187840708746219 0.27563058589076744
C -3.0917267864006677 -0.29024020178791304 1.3876094579601799
C -3.6943634853562632 0.8511474896685359 1.4259128464505515
C -4.123828067546274 1.4840273100704025 0.3799377413231089
C -3.7819731789457505 0.9947827297697429 -0.9386572568593023
C -2.526415909684853 0.8518871403585163 -1.3182435820058427
C -1.4946776623578357 1.2302496279760802 -0.296326430349989
C -0.7715030248357836 0.03730533846415449 0.053902498341589715
C 0.4967891259087207 0.21799948983236137 0.367735505979143
C 1.7779151552001244 0.43316234071103416 0.6063769351540917
C 2.6217035852862303 0.32068795121219484 -0.5696575072876369
C 3.5252736152034965 -0.8708713724627656 -0.5781551312729326
C 3.300415556813074 1.5914984364507647 -0.8116074650572882
C 4.5359092345654926 1.6859135944089247 -0.37969304967549455
C 5.771114292700905 1.6859716820706483 0.08779573508174573
H -1.7688915269600416 -3.8689215449865397 0.46967529308510936
H -0.2696565069824285 -4.382086830464341 1.4109842148575895
H -4.338612513887523 -1.4274042567859972 0.049927859884139794
H -2.425151404203283 -0.6233672816782151 2.131945321663861
H -4.735478037148585 2.3722245754218716 0.42797145443020645
H -4.59972762771313 0.7446832708152825 -1.6213412084295376
H -2.2302217436461227 0.4963987141223827 -2.2735274211267056
H -0.7223999012518447 1.8516892462030814 -0.9421344566957397
H -1.8614315325771071 1.9022978239559023 0.4379004490136662
H 1.981453182377636 0.6525651315705076 1.6099617365620866
H 3.5720809373466564 -1.3080562928730077 0.46023872772318525
H 3.066341564704538 -1.65917589682424 -1.20992852954906
H 4.531211769977091 -0.6713834444686129 -0.9792095096963149
H 2.9431385762827516 2.4647868878449266 -1.2905710747876364
H 6.4973585120221236 1.3540177429008078 -0.6034237149117782
H 5.855481036624081 2.0180518210627385 1.0884838191740145
