22

C 4.27503547871878 -0.38291256743729396 1.116929181880348
C 3.315314277003054 -1.1020847592108924 0.584869848689048
C 1.9891715857917258 -0.5949972158367028 0.18706634481548431
C 0.9088536164576896 -0.962168310507108 1.1905999605107374
C -0.4003517899620907 -0.4382988159413723 0.7600847677116837
C -0.6416578394119585 0.15798084183671018 -0.36935452888504416
C -1.8926314861863605 0.683122092315831 -0.8323624354533219
C -1.89634932555285 1.255839203539789 -2.033941432026517
C -3.1181155296835397 0.6347659312569779 -0.10323621610003296
C -3.2737755469940604 0.11977079176139008 1.0586532157458037
H 4.232753713891099 0.6681247367605941 1.3368882840951917
H 5.204703627825292 -0.8921166050268498 1.3612557544344621
H 1.9760812276167474 0.4922070853989054 -0.007485449270137688
H 1.719427459861008 -1.1018850604850912 -0.762573561510065
H 0.8056477571231064 -2.06008256838507 1.2895711609346248
H 1.2010071071285011 -0.601080573690162 2.2157213650111958
H 0.23725564286762243 0.26352600552215716 -1.0411292294743533
H -1.0100977427525966 1.3224688502143775 -2.6277084021418453
H -2.816585739158508 1.6546665471902025 -2.400842734244479
H -4.017752289189054 1.07971372940133 -0.5775483972006553
H -2.5193014848551134 -0.3383607686119761 1.6350180440781101
H -4.2786327205400685 0.14180142993584274 1.5269062370818642
