15

C 2.4140490544406816 0.7935109356138693 -0.5440259078790265
C 1.244087211345884 0.17922153570971894 -0.4670704833307065
C 1.1213448224926283 -1.1316573695648395 0.2009673119697908
C -0.17198747530260983 -1.3111239602439886 0.8895684248411146
C -0.8962620511732485 -0.2682208120118545 1.1929281503051112
C -1.7414870667054902 0.7538470446048399 1.1611313848950569
C -2.478225138361782 1.0265706207965521 -0.0997714428449333
H 3.3168771629371774 0.37242761401054997 -0.12946052673105257
H 2.4737491929414865 1.7487747520313737 -1.037118108682125
H 1.910569304972156 -1.1619685470300203 1.0073516126640618
H 1.3620742418698621 -1.980096177713796 -0.4735083319692917
H -0.5403860179306852 -2.2823659263231546 1.1472905099991824
H -2.77804978261822 2.0880030424395017 -0.09248753936757577
H -3.36797919202455 0.3584056314893688 -0.15748096640388543
H -1.8683742668835015 0.8146716161923017 -1.0014308067074373
