20

C 4.186380448886931 0.3243925431306847 0.88927737142877
C 2.8867550090799146 0.3971158828849631 0.659171181416176
C 2.364918668026127 0.010402146441376287 -0.6858716906708836
C 0.8529573848915543 -0.08900145892126017 -0.6592923115715075
C 0.2892457244281396 1.2282640227792285 -0.2775051588948177
C -0.971634172190035 1.3152939927691432 0.0397158915544636
C -1.817386833352803 0.14841176322850738 0.02251082879577878
C -3.0861420034320126 0.11334742499713378 0.318658639272588
C -3.7690714437796955 -1.2231326988683155 0.23077183679847074
H 4.580090332022675 0.5993420337280465 1.8534054372184405
H 4.87478629851469 -0.006598005180613779 0.13037450150940477
H 2.6379590341511907 0.8358445567418722 -1.3781521256091362
H 2.8425783769339903 -0.94801712425668 -0.944125520073637
H 0.5028351249098596 -0.8247697848216189 0.08446657039769019
H 0.5341668940106838 -0.4264172678440522 -1.6533224627330314
H -1.3876982000552187 2.2588076609128263 0.3161137965105279
H -3.6501037484145873 0.9816869951222272 0.6162284280314462
H -3.2017100442248423 -1.9894206992243255 0.8039479254760038
H -3.8938082610352147 -1.5382388560660403 -0.8218471994457992
H -4.775118589371128 -1.167313127553072 0.6719383698124866
