21

C -2.024975932584033 1.7971995264860579 0.5984153450203201
C -0.8659018325318232 1.3583772366223732 0.168170631173846
C -0.4018931504887554 -0.04538753957469153 0.2856029882212639
C -1.4869589744587683 -0.9627567399343122 0.7023440760091832
C -1.8293040441926647 -2.054657195749863 0.03459742484051345
C 0.23504154932165083 -0.5320266260735753 -0.9721520230919457
C 1.4416978078256837 0.2805905326451269 -1.3769116079041113
C 2.488986152733071 0.23978718283422468 -0.3207473244288871
C 2.5934794883409413 1.257246912621876 0.519052511918847
H -2.7830935612474557 1.2007009574623844 1.0882156343250862
H -2.251024691624487 2.846390085529172 0.4550603756534766
H 0.3981924499633673 -0.04627990583890169 1.0793747634603152
H -2.050155876405401 -0.7522606302627259 1.6025552704968753
H -1.2604641220943535 -2.261475287522787 -0.8690885896427248
H -2.6270077317761404 -2.7111650097763706 0.3590327343894595
H 0.6373561467705106 -1.5654811388738135 -0.7558763346398784
H -0.4838363570316465 -0.6288549514786469 -1.8051162697269356
H 1.842048878055137 -0.20005546837816354 -2.3077610660652486
H 3.171581914068107 -0.5925662361969182 -0.21166600793912183
H 1.916689503599513 2.127495753178912 0.4432370145094691
H 3.3395423837576383 1.2451785422807535 1.2836604534202962
