18

C 2.935720486074072 1.041561532626177 0.3466378834500156
C 2.7620125738958285 0.12059723279074192 -0.5877761823094327
C 1.8757704360493066 -1.0472566588331447 -0.37959634780229573
C 1.0186077339368933 -0.9368417733266301 0.78886761858381
C -0.25956356820544313 -1.121663093297088 0.6032612789903268
C -1.5442105398836452 -1.208824228547128 0.28588511509386755
C -2.1860255900121617 -0.013266027287498292 -0.08833573115307704
C -3.0312880666709594 0.6631860491620724 -0.9579755968692278
C -2.4805594303977014 1.4266957687360626 0.1138973436251949
H 3.565645983056689 1.913741912986311 0.2579807486212075
H 2.4051978574634294 0.916254312208066 1.2797484215359403
H 1.3483188324419404 -1.2881221987314424 -1.2968975803014113
H 2.5745583702922237 -1.920091640361738 -0.1982198996943535
H 1.2821892511281712 -0.723719929311042 1.7845491394462807
H -1.9010227199047092 -2.205867369409232 0.36564236084034535
H -3.6526546558284125 0.5612638280491876 -1.848642320794863
H -3.141836135490573 1.7520386949083389 0.9205573053390588
H -1.5708608179447952 2.0703135876380374 0.005986059764245273
