38

C 6.486693618354202 2.4275407258394646 -1.3043063850627168
C 5.438332414801319 1.6881257995846128 -0.9980387568284119
C 5.461288377128843 0.9061328464991195 0.19757731018417798
C 4.319310252690355 0.8324292828444396 0.8439889186235864
C 3.1225410688587805 0.7350773201716563 1.3903717105917164
C 2.3146968327155686 -0.33635819897889974 0.9121899723487488
C 2.7140627535206083 -1.5552342347172614 0.5960098839741336
C 1.5776795133693107 -2.356616819634405 0.1464021271034442
C 0.5039121041963448 -1.5787374770159601 0.20668938028624265
C 0.8757210304401095 -0.3362183928644365 0.6635946338282928
C -0.10902185523532877 0.6241023253007035 0.7969191285604558
C -1.4283007510798493 0.36775720558845987 0.48795394202736614
C -1.791057275867666 -0.8926910913399247 0.026949093668500537
C -0.8385490079366104 -1.8553224914471447 -0.11267874397199772
C -1.172132862661426 -3.1987405877531443 -0.5948871888267534
C -2.5756404059159643 -3.451134154325467 -0.9172062672814164
C -3.495497227853482 -2.521270332318659 -0.7822971332781681
C -3.168152851654793 -1.1883314561680043 -0.3044649543068997
C -4.08118344159244 -0.24236316340884895 -0.1632724440711697
C -3.780011902843457 1.1118513821576517 0.31677710997339986
C -4.310907952820187 2.1443025065645425 -0.594229041050472
C -4.078016484476972 3.430520200425785 -0.38369177090661494
C -2.3628134652656843 1.3175023167274422 0.6266370985733973
H 7.3773656092617035 2.483710498168947 -0.7028500277068145
H 6.44575558358843 3.0082629443376736 -2.210585934109681
H 6.245419557573978 0.36990087750797623 0.6566167543324242
H 2.9343978246655302 1.480273608436869 2.1150937231837155
H 3.723420663166785 -1.9376689582897408 0.6495598974890872
H 1.6383948598473934 -3.385175196968625 -0.16814209092192037
H 0.17844322237118795 1.6012938568065962 1.1553935282014853
H -0.7703632972687897 -4.004355291026046 0.08294170491537939
H -2.883453309319085 -4.456454856858429 -1.2881275446976421
H -4.522879055634151 -2.7591678697155753 -1.0350290971288227
H -5.090522794076054 -0.49459826901697446 -0.4174148682826767
H -4.90607990705944 1.8190912875960794 -1.454325412917874
H -4.464072311396161 4.194573920448105 -1.0475953775581726
H -3.486340017582449 3.7271262785008585 0.4742536751520994
H -2.0424391090257856 2.280863658337151 0.9864475341930193
