25

C -4.086511633009218 1.6364426494891038 -0.21963508848126093
C -2.9425321747983078 1.036479028565883 0.10070766833263808
C -2.900272439372997 -0.4215794154584735 0.441476466786883
C -2.3574164066300516 -1.1507284125920487 -0.7190143786872777
C -1.259224522894049 -1.8597567708773766 -0.614106267975323
C -0.581735460902528 -1.9218162935773992 0.6523556211846657
C 0.4010461247745968 -1.082817147378854 0.8134534558931146
C 1.4309069966536827 -0.2820496856026345 0.8574716537353406
C 2.671852294566845 -0.8127746322891576 0.3690873401836054
C 3.4725412136103024 -0.04683357498697536 -0.33788088765527496
C 3.0739820506429307 1.3312914329266214 -0.6079864438466575
C 3.8333729993803467 2.147674987191074 -1.310286457718503
H -4.056202236599646 2.6895644566838275 -0.456043390980359
H -4.989865035883101 1.0477540442449373 -0.2292086145975387
H -3.9434693489804697 -0.7477125453612781 0.6920994971031134
H -2.310023000387896 -0.6008864716948109 1.362242964555604
H -2.8619797434279155 -1.1058518168636393 -1.6663999987800393
H -0.8769354618063419 -2.3856947387372656 -1.471217750622053
H -0.7599484636379071 -2.5488758089806516 1.476574338704161
H 1.2178299871509788 0.6711476411476578 1.251995543757903
H 2.9952342080816914 -1.827826766926585 0.5517673208423926
H 4.41074424133859 -0.39747739887079425 -0.7250008389435029
H 2.128236363219788 1.7337264126523069 -0.23506050997673864
H 4.7780826993295875 1.7462187699621734 -1.6829905787364923
H 3.5122867495812247 3.152382057333825 -1.4905616848085872
