21

C 3.268903446079823 1.4790041723330347 -0.04267804727169538
C 2.745892669240683 0.3948610896669022 0.48338398798778315
C 1.2575981248587351 0.18750758347612237 0.3566039519802043
C 1.006518211672428 -1.2560853798461862 0.137362277013926
C -0.3899733950796415 -1.7098871466948324 0.017673844895715586
C -1.2082671969282925 -1.1524780492826763 -1.0901501837089103
C -1.4059436002996895 0.2904605077995271 -1.0983063966765128
C -2.01365916508797 0.8176573188000023 -0.07000159408409476
C -2.6488158308924694 1.2474768220312646 0.9842571435786729
H 2.684432338556078 2.2285495450537187 -0.5613476206069453
H 4.344259101600253 1.642446870647722 0.041265447282360125
H 0.878407381655655 0.8081949508844752 -0.5061565091249702
H 0.8167915893516433 0.5134333203076171 1.3117115542901516
H 1.7315274000094658 -1.7631762383511813 -0.5245549178690684
H -0.3865422371978038 -2.830626725245995 -0.14036993977860385
H -0.9004212408361426 -1.5250959929401258 1.0105131572559727
H -0.7423508088439775 -1.4369941617164035 -2.0651849558951048
H -2.1850797828931614 -1.7021231976379696 -1.0899980110479828
H -1.117334004359977 0.9686894481180867 -1.8369757802864923
H -3.7102818495433856 1.2783994894805784 0.9133442802965114
H -2.0256611510624545 1.5197857731162905 1.8042766223466729
