31

C 2.0895156974934377 -2.931324608013757 2.7958676507794626
C 2.886264429987889 -2.4212946486877254 1.868848817526439
C 2.4075987826936593 -1.4705615712468152 0.9407294430057636
C 1.0858384063398585 -1.4395639703169105 0.7692702089321448
C -0.0691055304346106 -1.8854924630856575 0.29517704579882914
C -0.3613281733047233 -1.7107714348980523 -1.0501578454665685
C 0.6083522814552439 -1.4065069676500632 -1.901186049055232
C 1.5465654580751704 -0.7548267374479856 -2.583148401431908
C 1.3814377808702085 0.6476228698503049 -2.7072405006806277
C 1.0968429753781261 1.2802368782302846 -1.5755408029510658
C 1.1692795470944681 1.8756415730784317 -0.426062975546844
C 1.7038871731349832 3.2348189403621936 -0.30569000184570155
C -1.6730905246581258 -1.7175159552046364 -1.7057156557887974
C -2.325844316082913 -0.41058771096929064 -1.275224012822386
C -2.8243937307981697 0.6209535900240905 -0.9231616497894817
C -3.377220430313344 1.8184541059474952 -0.5156022055883234
C -3.945135794486618 2.1712289420242543 0.5654056481508078
H 2.3470980655447016 -3.646924229096089 3.5406058206494495
H 1.0389099397652901 -2.5911406711493754 2.8075581899341318
H 2.9309532099919857 -0.7834485358844703 0.3456993670355384
H -0.6668348729103544 -2.339986467103414 1.0674180668416267
H 2.277031870522078 -1.4210094825289743 -2.924286108241163
H 0.8268988910194729 1.36080064729611 0.43821881250516026
H 2.060196055216408 3.4019598176078705 0.7318879345370531
H 2.5843511286353986 3.421690334124858 -0.9915110497221962
H 0.9029704769843647 3.982790546785247 -0.5071530954742989
H -2.301738990843247 -2.5336365270926184 -1.30615374864621
H -1.5882649565669051 -1.7965421090001852 -2.768573338873043
H -3.353671807909179 2.688373912525839 -1.28665357815645
H -4.332638733536093 3.203543460231798 0.7200692036801728
H -4.124724308552774 1.5530184716796076 1.4507644229637038
