29

C -3.708101762128349 1.761284753340748 -1.2510197327991373
C -2.504372023770718 1.2686483955958168 -1.066674755396587
C -2.279920544713525 -0.13819758550141664 -0.6741815823261444
C -3.407232077610923 -0.783203335771283 0.08525582821770632
C -2.4088386432793647 -1.223934940098038 1.1575155695357955
C -1.456882996990937 -0.18149967644419848 0.6085533761877833
C -0.10404540152557679 -0.6873678447153441 0.31414746354390277
C 0.9404928962043084 0.06476026656387911 0.5672481469592668
C 2.2580052219141815 -0.4558583937193265 0.2687908875609699
C 2.4402321013857606 -1.554323021239595 -0.6799796241922956
C 3.2957694181157526 0.06910160585246901 0.8504197379878612
C 4.34992471915792 0.8010886789080386 1.191028387064658
C 4.720384777071834 1.8879206460158837 0.21497713056249126
H -3.7895645954808255 2.8065920946554326 -1.5391006707813153
H -4.580185129449153 1.124754770765077 -1.1140197825682487
H -1.8988530421246377 -0.7809915970434694 -1.4889466022508668
H -3.8641358845930487 -1.6734943199767096 -0.3935016412863077
H -4.129941523733399 -0.04658637374425654 0.4969023604666589
H -2.7465920835799507 -1.0105644923931945 2.1997675000707937
H -2.0537635545397857 -2.2744890381234195 1.0322362737140711
H -1.5173256331421203 0.7430689613120641 1.1917424848984046
H 0.016896385693721025 -1.6652685856935963 -0.10422549207499142
H 0.7810717636573448 1.0531481365510587 0.9923978174795525
H 1.6470084060198324 -1.618372848681504 -1.4550155884617
H 3.402401272964057 -1.5265154449978708 -1.2247075017775957
H 2.363265612574054 -2.5117561243386257 -0.09741501851987326
H 3.903859227914712 2.656518182828568 0.3184482385985678
H 4.676690565719251 1.519112223628409 -0.81471232918542
H 5.653752528270089 2.3764249064659535 0.4909894763760974
