32

C 4.648753764847739 1.4080001711720793 2.0979967120127525
C 3.7077183775411062 0.7946991876666816 1.4031729111578009
C 3.702071616079241 0.839057280381698 -0.08003610013021134
C 2.9972987617240396 -0.42833289769943794 -0.5613800398975952
C 1.6253442125649076 -0.3867507623481975 0.0031209034223600453
C 0.56376960743408 -0.3849204286954677 -0.7872891086408608
C -0.7761093485650186 -0.3425546186458184 -0.16489047041857416
C -1.8302445828430587 -0.1317481639667155 -1.1911120622490512
C -2.7731547356387725 0.7679619079599358 -1.0729780383253544
C -2.901769068127953 1.658539357782932 0.0618402392085649
C -4.103260398312341 1.767287857835346 0.5649497632715641
C -5.345051148175934 1.8243544032125265 1.0165445427902824
C -1.044776650371224 -1.5340033915094753 0.6995386061380879
C -0.9748289590885204 -2.8290973981801883 -0.07300628044083361
H 5.421944340194015 1.9474383492624265 1.5750765825621853
H 4.660607355946919 1.3813445394035986 3.1646151210311455
H 4.731659491282832 0.8514584141583833 -0.5037715530995759
H 3.144479702719528 1.7339258234932964 -0.3800192560128413
H 3.520888048539661 -1.3254067556723441 -0.18437648946055427
H 2.947900318227355 -0.4503503717696445 -1.667636772199565
H 1.5514304318605243 -0.35837146254313995 1.0904979191225546
H 0.6995153463729784 -0.4139750564233385 -1.8515622998927956
H -1.7949531747906415 -0.7547822830763332 -2.054175282400135
H -3.50722897880187 0.8624513398336346 -1.8638449122870555
H -2.1620550682195367 2.2340426148646166 0.5422341497831649
H -5.567834046228896 1.1083180626788438 1.7607024623506708
H -5.934507890006314 2.576847795999579 0.567635508368688
H -0.3095782008816991 -1.520566365104123 1.530664091382575
H -2.072441901200453 -1.4132455383513216 1.1246217614379712
H -0.5926615541530649 -3.608726688371137 0.6230369909197342
H -0.2426571217985304 -2.76333010650348 -0.903155026832573
H -1.9902685481311215 -3.1095648168448338 -0.41646313621184916
