22

C -4.940128462548985 -0.12242495980740868 0.6134611627983503
C -3.7351132994181047 0.3101442192870342 0.9332471817104631
C -2.763596994547299 0.6814525574515733 -0.10774644902661394
C -1.3603071743689537 0.21981428073186168 0.25797646363153276
C -0.4485280260340903 0.6228559046891404 -0.8212271404404602
C 0.8627487612888618 0.3707733823122888 -0.6919986172119562
C 1.3453469530172375 -0.2857052109985209 0.4950645463184644
C 2.604972267728619 -0.5565898222439524 0.6772880459039867
C 3.574533853550956 -0.18979259925759837 -0.345392702965119
C 4.863756034037754 -0.4861155132960666 -0.12032725298318214
H -5.224880225788301 -0.2075432634811126 -0.44675638037790694
H -5.677384328163277 -0.40338076937298756 1.3563288507703628
H -2.704048034962201 1.7996127432668088 -0.21519995418424387
H -3.0391813466239923 0.3017575921560267 -1.1175188872888353
H -1.3807915735038943 -0.8778058035572521 0.4342878878791107
H -1.1069145201177615 0.6785509604751013 1.2395678434568391
H 1.4540615794168488 0.6971786516570505 -1.5233224510857708
H 0.6547734786816634 -0.5857320691255736 1.3018527267592965
H 2.925490240642845 -1.0556707317706902 1.593194335851069
H 3.353322595122552 0.29660185306879844 -1.2644418907847943
H 5.608359429265183 -0.22678024612392442 -0.8605266343565081
H 5.13350879332433 -0.9812011560605666 0.8021805915826937
