26

C 4.637877479047599 -1.450038680498998 1.4370085978126355
C 3.81154727231925 -1.0613858944266996 0.4620517276338381
C 2.3762534122032966 -1.3705857901044394 0.5043172186687777
C 1.6962389510537825 -1.1592392444416237 1.8565287141534172
C 1.3886450841632634 -0.27028395849975106 0.6633867764161792
C 0.008005239128951624 -0.42027028755409745 0.14801507300349934
C -0.5404349372574129 -1.6063181585772828 0.10673625362625365
C -0.7713168434960911 0.7419783699582022 -0.3237979162328086
C -0.38218835814145435 1.9871910815261808 -0.3530723425067683
C -1.4543109173090476 2.8682757250592203 -0.898009617821012
C -2.547197622207393 1.9087367288826937 -1.1839372060599442
C -3.8923066516626568 2.258317106606356 -1.7579158662961323
C -2.1300289309185647 0.7121738580249505 -0.8480444516363544
H 5.692887069353202 -1.210955641568616 1.3851015812076517
H 4.258650618345 -1.9986966218616216 2.2716887667842784
H 2.0074172797610434 -2.233394193722804 -0.098939479216963
H 2.3038774907756925 -0.7458065267473822 2.6831340325933053
H 0.9516036271030599 -1.8957362625171041 2.1892725530217625
H 0.0038387230357028856 -2.4641197613662977 0.4429518703210327
H -1.5368391383130546 -1.7278167393387673 -0.263287038251577
H 0.5819000440046693 2.351505185236142 -0.030818210032554392
H -1.0752358173587493 3.2249926160249034 -1.8902584980013646
H -4.665977207662406 1.7353015819864566 -1.1591719009826202
H -4.063398402218764 3.355926075312934 -1.5656216770467546
H -3.9227168102346623 2.027735516984648 -2.8229285905530297
H -2.7367906534955866 -0.18172054807516652 -0.9543903706221276
