19

C 3.666634032965031 -0.01725638754995733 0.1278436001457375
C 2.8620445808796537 0.09217675727143908 -0.9052620844697183
C 1.541491542579234 0.8116167375768287 -0.7623471164166034
C 0.8783841579931421 0.37769277195909035 0.4708864983641349
C -0.3040607335461466 -0.20701734834580693 0.563559259805468
C -1.208743020886064 -0.5475703239251617 -0.5557487502491542
C -2.5210269022704193 0.15107686781503907 -0.4042312300328056
C -3.619000949566639 -0.580803215179178 -0.30665962172735184
H 3.475015514872899 0.3720343092418568 1.1188561388649456
H 4.610826609709202 -0.5484068647333565 -0.031390700461414116
H 0.9864550235533923 0.5847042968529758 -1.6865924770899174
H 1.8203951469587172 1.898158248249301 -0.745117401052321
H 1.4648001615196722 0.5803031852331796 1.3982262878495622
H -0.6751783890605001 -0.4773483709054234 1.5600576328055162
H -1.412598484557764 -1.6609832068360662 -0.5812157122135561
H -0.7828062955525754 -0.30461529014052546 -1.5212531078252114
H -2.5906840259330304 1.234957546211811 -0.37299154866506157
H -3.612326337749686 -1.6631355737049909 -0.3313607970106822
H -4.579621631907202 -0.09558413909121419 -0.19632716403688413
