22

C 2.1940109706875144 1.1787213752079684 -3.687941920268487
C 3.026398838256478 0.27435789649673475 -3.226380030685042
C 2.7327377877006467 -0.5206154321550834 -2.035917432430855
C 3.571104120279615 -1.4260882960603254 -1.5769643943760647
C 1.4936781424962744 -0.3067227064149321 -1.344874113190382
C 0.4339193215265763 -0.12351467892667274 -0.7754937011651882
C -0.8057311740120066 0.09727634384393444 -0.08184655896006417
C -0.8046847418566913 0.5297664424481907 1.170443652827239
C -2.118827056039314 0.7368816271700241 1.8280018272683922
C -3.048373312630753 -0.47380677683963235 1.7356535526715275
C -2.4833487400936387 -0.0071543276805196765 3.053055355813872
H 1.2652341326312797 1.341557529570424 -3.1749705485075723
H 2.477205173287716 1.7290212194455916 -4.572988137183327
H 4.495063262436986 -1.583183869423055 -2.0927593179909785
H 3.3357401312726624 -1.9955675547391107 -0.7051240957819831
H -1.715627160560787 -0.10546579045387179 -0.6291066612649762
H 0.13498325508355652 0.7129611751198898 1.6593064049618922
H -2.5514144738664952 1.7362598024120415 1.6722974815031335
H -2.6234825614718544 -1.433284069661387 1.381855932199041
H -4.101865204117447 -0.2355842664669167 1.483797581081402
H -3.1956015727524045 0.5006226178135729 3.7356845554429943
H -1.7111191382588649 -0.6264382607077416 3.5491719173126572
