33

C -4.859351098538389 -0.9394106938804793 -2.1353784614490223
C -3.547108329977467 -0.8094899632779812 -2.0152669853754848
C -2.89787754910684 -1.1889001870678721 -0.8157878235055526
C -1.8664172931433867 -0.4070380270848806 -0.49157409300230487
C -0.7666077996112947 0.2338347275269823 -0.32197033201871383
C 0.41234788005415907 -0.41648894357770877 -0.8433319813931746
C 1.0329340873613404 -1.206472148483747 -0.011981691917141563
C 1.655065351705256 -1.908066243726803 0.9136128910156232
C 2.6104854734487914 -1.193813829404867 1.7036803235485574
C 3.7341255411393126 -0.6895456910338259 1.2736254543873287
C 4.171127409818763 -0.7964158831801744 -0.1202940964374991
C 5.241639762366555 0.24705186024439757 -0.3584782171761142
C -0.8167823922144556 1.4855357440982995 0.343953723506317
C 0.3556943273709762 2.1155428204543925 0.4952860605128623
C -1.9828724082704945 2.1054013613409377 0.8499709102731142
C -3.125366932667616 1.5533074076506255 0.73646064736646
C -4.401614140794687 1.1792098843135863 0.76212585777421
H -5.400594284386376 -0.6614197612221349 -3.0369101603657516
H -5.4660482043763565 -1.3340851862006433 -1.3311849684921833
H -3.030713937370313 -1.9357809512016408 -0.10460161642797822
H 0.8505961826530696 -0.34823833902304435 -1.798375735700702
H 1.3562495787753692 -2.919411835679898 0.946061049841329
H 2.3813374151576396 -1.055049884817439 2.769450346750985
H 3.308796567927496 -0.6509121448695813 -0.7793156806431855
H 4.548141024505722 -1.8259434912873234 -0.28823005967831244
H 5.271316753119404 0.4460178944887768 -1.4384322314019398
H 4.954970018431075 1.1419340088053216 0.23620025485780727
H 6.1891690646425825 -0.1348332572225501 0.061602278237833416
H 1.2253498260857298 1.6443582103456602 0.11392683238602484
H 0.4069239537835652 3.0618146195580795 0.9860031566086579
H -1.9831297199522953 3.0747055037336413 1.3592354936787536
H -4.646366166131635 0.6511005687169975 1.6308134498891114
H -4.915419961805485 1.481501850964986 -0.10127115765151055
