20

C -3.850509386531153 -1.19378646509637 -0.5293136171139673
C -2.8196763982108797 -0.8210268522465647 0.22699551875088123
C -2.147159140771801 0.4925704356292889 0.08008792853091308
C -0.702773457100054 0.3464722413651319 0.480129417361657
C 0.052441693530175394 -0.6441691440340362 -0.34494276888999537
C 1.451339593989085 -0.6789766932221859 0.1631938775392934
C 2.35534404412061 0.20297168526201925 -0.23124625637303195
C 3.7580831572653826 0.19615097482878166 0.2558275379929212
H -4.267443385463533 -2.176581802566139 -0.3374877208633968
H -4.219895701998814 -0.5176599377815201 -1.2847116200019808
H -2.297440028335394 0.8808626232605317 -0.9218246673775752
H -2.6217134189350384 1.1881653231260176 0.8029689215303779
H -0.6664994787115271 0.016881180643108895 1.5385388500720691
H -0.17779441966034287 1.3282192008617348 0.3919811647770853
H 0.04585142424563535 -0.42872263775160935 -1.419976317611523
H 1.763563690439252 -1.4351143629252499 0.8746837350883777
H 2.0607025362213287 0.9523560435386556 -0.9313011602327005
H 4.129718005962289 -0.8536107363167034 0.27015691405211617
H 3.745627030079663 0.5628592979700218 1.3042999576498207
H 4.408233639865516 0.7863610260777153 -0.38805969488138925
