20

C 4.545781985380166 -0.7392372281640424 -0.5818425685278945
C 3.24875049551708 -0.7481381045569471 -0.4000626484394943
C 2.4441646673554334 0.44959677645376234 -0.27333382779468035
C 1.1103546894390934 0.3775557540180233 -0.08717882700900106
C 0.3709177157742223 1.6067658392419437 0.03079790779269884
C -0.906238927904828 1.7244898423630952 0.21118742507030383
C -1.8796089736004526 0.6739208148863175 0.33537427292418137
C -1.624065287748427 -0.6003215089233959 0.284748280812859
C -2.605938272016995 -1.6489240116924353 0.41015664695817466
C -3.889518748750287 -1.4167921414857074 0.5927230530676171
H 5.083432783699474 -1.6516498916671656 -0.6678234048901531
H 5.055546347296955 0.19930718311988554 -0.6424704787586485
H 2.8923450354577973 1.4199299938044436 -0.32488160019006135
H 0.6533992877450036 -0.5944411831416003 -0.03442826598166682
H 0.9212013510657073 2.5787363005521917 -0.03500754364959813
H -1.2986605432417118 2.7684955777959472 0.2784020567808959
H -2.9400107780202114 0.9747505192059799 0.48746352249836583
H -2.285408444117365 -2.6931583861511 0.3531179480820953
H -4.595077403366343 -2.239568842984422 0.6820415055091626
H -4.301366979960383 -0.44131730267148817 0.6617646133816506
