21

C 2.9935566194691665 -0.20534611225465374 0.3096754945085661
C 2.2944262012308467 0.5098670055008194 -0.5479829098249192
C 0.8182299443994993 0.48349941000777036 -0.45519651659985344
C 0.40219326583971576 1.5238232316436497 0.586698139786982
C -1.0295550626710055 1.8159839763208911 0.33111161441288767
C -2.0636752245115666 0.9943899282906392 0.23303753385491294
C -2.1283539700773857 -0.4555763595081331 0.3441003526392883
C -1.0399509379342675 -1.1937316601934618 -0.39115216311469925
C 0.33511840722666736 -0.8486959190543918 0.07976972195992443
H 2.4847505967923156 -0.7915150517282784 1.056644030049884
H 4.079392983925303 -0.2007135202237897 0.2597413485095487
H 0.3158018491462339 0.7687057960679828 -1.3958599123890587
H 0.9927538224106998 2.4586573179944264 0.48553419003879017
H 0.5662550492745552 1.1499674132136188 1.6183313691676826
H -2.998360496628469 1.4987799681728657 0.03996064925597073
H -2.080459669993662 -0.7774812075898229 1.4057593226650442
H -3.094659963204106 -0.8255410113029106 -0.056272341097469813
H -1.1026335918804122 -1.096114754170076 -1.4870776033017337
H -1.1985866406401529 -2.2827510400506634 -0.1637593944267796
H 1.0316512881058424 -1.6203399289656548 -0.35237911001095573
H 0.4221055297201433 -0.905867482170874 1.176372251052118
