24

C 3.7860858941501285 0.16114329736504449 -1.2874592078129974
C 2.55056956469705 -0.23607255792328283 -1.5408953827870513
C 1.6964828480587815 -0.6561981228036314 -0.3660454004198013
C 1.7424543916523183 0.3834305753563809 0.6683791362361533
C 0.6468489424533984 0.8973188678888252 1.177491461328254
C -0.7109437621851917 0.5234901981653107 0.8024472561537783
C -0.808165169235145 -0.4080277836607053 -0.12558023362503185
C -2.240716274542842 -0.6935477706766586 -0.41236368523520317
C -3.041859043736559 0.38643189505114345 0.27970806670795056
C -2.051849417869656 0.9773038606800453 1.2511089695494761
C 0.3526709106201636 -1.0501725583208383 -0.7668350682531848
H 4.381291444410842 0.4595061600167294 -2.15796010305975
H 4.192437787668198 0.1924672649720392 -0.2827825499639424
H 2.209486908851761 -1.5677866446606863 0.09802501119823842
H 2.7363770024487772 0.7528300359602578 1.0378487498686828
H 0.8161377960263061 1.674333838350624 1.951257715706737
H -2.5283402276959652 -1.6855144220047904 -0.006901942592607988
H -2.4443771171684934 -0.7307387419044963 -1.5125258062548006
H -3.915551007770928 -0.07696052672666188 0.770759141421911
H -3.3928002877037966 1.08221926863506 -0.4818105685528803
H -2.15351949320255 2.0883856119254047 1.1685951448707752
H -2.2958298407081807 0.6111119041620076 2.274400850097108
H 0.23308600313563102 -0.9049671323792741 -1.8874727618983649
H 0.24002214764590799 -2.1799865174679285 -0.6513887926834283
