21

C 1.9949150526372825 -1.7495607244329086 0.3048425252910945
C 0.8091638534908074 -1.221149994350319 0.5621155845244705
C 0.1373841272040596 -0.4422343401867882 -0.5035503837061733
C 1.0660646309786466 0.7055329310286443 -0.8993098574350521
C 0.6863847987141644 1.8718057937796577 -0.02827932462728054
C -0.49229980554918634 1.4326706582092312 0.8071649251131011
C -1.0626216803203934 0.3086846779537938 0.00294630105089904
C -2.0168651259638746 -0.5243703966548928 0.7350017588512003
C -2.5122110752201885 -1.6168615958589048 0.18984418310700935
H 2.549192785407885 -2.3372280006915043 1.0451552611100157
H 2.5021356393568137 -1.6389204531245163 -0.6556945089868877
H -0.08315313377928898 -1.10534237773407 -1.3417238925603807
H 0.8262565717985944 0.9041735551089064 -1.9838967648175772
H 2.1154169257911866 0.40793574708091973 -0.7525942663678636
H 0.40554135314737044 2.736309898605178 -0.6982080557720617
H 1.4975934849462786 2.2379200782685293 0.6066419180415419
H -0.2100081904950696 1.1501591347778783 1.8344989529558644
H -1.2229824938725515 2.2655461052425854 0.8267154880395094
H -1.5654933014233121 0.7546777705393716 -0.8912149725809623
H -2.210907142075126 -1.8980747840707912 -0.8041529515525253
H -3.213507274774179 -2.241673683489985 0.7102219256915134
