17

C -3.5647252678423236 0.132398914012627 0.2922417347439876
C -2.5507767594161024 0.07713491422633313 -0.5472459191494087
C -1.1686356944420868 -0.07550091105017656 -0.03439280592102638
C -0.15898756800428507 -0.07000481106075435 -1.1559493063563981
C 1.2206960004934557 -0.21916367806780665 -0.6843348581860572
C 1.6358574306957703 0.13093554106550098 0.5305293674520747
C 3.044075836708452 -0.04556411384364085 0.9459441361756363
H -3.4061938607997106 0.06821576961996192 1.3516844558397005
H -4.562118417397713 0.24309732580956858 -0.08944616127933715
H -1.1226534235421552 -1.0455870685481452 0.4930309505272121
H -0.9970595412196569 0.7496734502434859 0.6912192096234452
H -0.23787661338202742 0.8052966164248594 -1.802152766409856
H -0.3979615718822155 -0.9609732440180592 -1.7936237486605895
H 1.9483119653323737 -0.6431121304801847 -1.3735782013666156
H 3.181242906537824 -0.8074068115802643 1.7299585570833895
H 3.415691576016003 0.9307523448806703 1.3637868920201521
H 3.7211130021444285 -0.2559590371950279 0.08232846386373108
