34

C 6.659718224367899 0.9598692886685574 0.16609137540466506
C 6.733587057848313 0.1063346233572333 -0.8396742489998467
C 5.57410101013345 -0.6480063612165712 -1.2065878373866328
C 4.436375023527681 0.012710874056378082 -1.204945342192542
C 3.3240438525948934 0.6781014567333618 -0.9158717387472131
C 2.7582107501620667 0.6329457358068645 0.35597630439909994
C 1.5556850378466103 0.14668728327081182 0.3730695093196366
C 0.48846982865557975 -0.5398127652910434 0.5845293177888384
C 0.4554310539990347 -1.9511760797689606 0.8119044929911037
C -0.6315998845581835 -2.653158843432022 1.0286849263188282
C -0.7307545830474025 0.20090601880153872 0.5787968020999781
C -1.6239666119747351 -0.32887247144048143 -0.5175461426897798
C -2.788844902900205 0.2301858152709584 -0.818240011198372
C -3.290847691352957 1.4098120701333496 -0.09989595690058482
C -4.801030932541961 1.560871006972469 -0.26079023238064514
C -5.5198454128999535 0.3848661033723966 0.2651177196466671
C -5.744719289128617 -0.7150387803897524 -0.44807517463127017
H 5.744310088924475 1.1030395526273236 0.7196373532744661
H 7.513759634165473 1.5462562764771337 0.4714669835907681
H 5.471099740284291 -1.6605886585905258 -1.4820479400571254
H 3.005347423139609 1.2052080046781155 -1.8142415475569402
H 3.278341109951088 0.9647545419896971 1.2113235423653776
H 1.4223382843963817 -2.481844395017567 0.8018877420621278
H -0.5825214807001505 -3.718502818791193 1.1930529017785405
H -1.6092907506662664 -2.217019410085036 1.0550706560983225
H -0.6507002234286053 1.3025914403488321 0.3339655439667223
H -1.3117953234048678 0.19344930381511166 1.527985017542652
H -1.3313996031187676 -1.195618962081226 -1.098218633166349
H -3.1220506615032546 1.3412807365379942 1.0148308713677685
H -2.7765787796934442 2.333291865737189 -0.425421411932282
H -5.165815428696918 2.4476521786221626 0.29367008225302393
H -5.031881102692385 1.7248560686364611 -1.335607998125106
H -5.425061379697375 -0.8448743507947122 -1.4647078267866835
H -6.282114077990071 -1.5311563490147435 0.02071163178919819
