15

C -0.7566880045355479 2.071203463082305 -0.029156200685980255
C -0.27264822256898325 1.1932401233571235 0.8216068709614587
C 0.09691906721287305 -0.15547278215978266 0.35839963353211024
C 1.4419298455215785 -0.08109200316316484 -0.28467799248967646
C 2.5024309422462423 -0.0064896847725404005 0.5095544964812343
C -0.9121378644022149 -0.6704209211472575 -0.6201249688255066
C -1.5453998247564613 -1.7831019891445956 -0.31638078025676075
H -1.0304240244291274 3.059795804051806 0.2968867711440186
H -0.8801176390759538 1.7989230256322968 -1.0599503278868119
H 0.1924693313382748 -0.8052417558375583 1.2302472586748072
H 2.467644487681502 0.004659274598732328 1.5924596762827208
H 3.4699619759212594 0.046733705132749846 0.02418661494868741
H -1.1291368022665238 -0.16684595655051118 -1.5447916883186092
H -1.3685156053054846 -2.330742298697784 0.5967503745614777
H -2.276287662581465 -2.1751480043818616 -1.0030095246230308
