45

C -0.7152658800953502 -1.6795911789177813 3.678352728600288
C -0.7566531480681249 -1.6906606572669887 2.3427332954450306
C -1.848083702347278 -2.352317381778014 1.7025459709008164
C -1.9528821576060138 -2.4013464676939362 0.36781112605261784
C -0.9696484860921861 -1.7892875925123821 -0.47980001630788477
C -0.9977286956482606 -1.789520921333166 -1.832248404489987
C -2.091963381389036 -2.4570898477582794 -2.4300221053727937
C -2.460647262523154 -2.6644131940710114 -3.643931009039723
C 0.04890807446927621 -1.0864273719612914 -2.468199294176151
C 0.19822203933852545 -1.0175081734366276 -3.7834241237910526
C 1.1106875041394233 -0.3133694603052455 -1.7239618988431409
C 0.6395853067826054 0.9015026818391085 -1.0581338270907152
C 0.871594274251902 1.1836814128730329 0.17238915430583793
C 1.6313408134774268 0.36649615745208397 1.08178232607228
C 1.8348355984431794 0.7267232234568088 2.3523582105313774
C 2.595312806290041 -0.07142243099499651 3.2942101565782216
C 2.805686838326285 0.261160710992727 4.537187963144149
C -0.1421897003543298 1.8224491807267118 -1.97085397878883
C -0.5760774644887323 3.0858320504205055 -1.336690098970104
C 0.629312701067542 3.8701273259937 -0.9286694663989679
C 0.5472379433767486 5.0818187374155706 -0.41215877760430614
H -1.4698436447224568 -2.1482305596460702 4.274290824410825
H 0.0985610806118195 -1.1855450912410146 4.176545157974629
H -2.6181299752400355 -2.830874907830134 2.281836650454563
H -2.80149077924523 -2.916232861783472 -0.028656777128026414
H -0.14417646879430043 -1.3290497431268877 0.012003049592919578
H -2.8358594926826646 -2.9323111182796864 -1.7028105532947813
H -3.43002880659366 -3.2630041722951177 -3.7873905051635246
H -2.0780467691130946 -2.407068861458111 -4.577405396087331
H -0.45634308281413694 -1.485440411946382 -4.4474586516305346
H 1.0612242479573861 -0.4338259691470011 -4.184161053392447
H 1.9042845131024875 0.036702596748927646 -2.454421677561847
H 1.5565277046848305 -1.059485364344788 -1.0298355234108472
H 0.46530826091079736 2.096115279895224 0.5965500425564453
H 2.087580486024033 -0.578557935264076 0.8182721259749796
H 1.4031344306333482 1.6651446270791397 2.6791901448186777
H 3.0042681323025557 -0.9984277962602184 2.9169596116683287
H 2.4377401109897816 1.166252980531867 5.002756243718665
H 3.3837565896232076 -0.3835687475884278 5.185634930309404
H 0.3970229746518444 1.9620972759429647 -2.9124593890127413
H -1.0627348159455774 1.231248251098367 -2.2183318480745355
H -1.1731654585742053 3.7180565488207566 -2.019601128289853
H -1.1847040085853586 2.9340138215296925 -0.4218811805420187
H -0.40369368359757307 5.571463719951084 -0.2571843909304587
H 1.4572244330681121 5.583691635472786 -0.14289167268729228
