26

C -6.0905328120023166 1.789119103432092 0.23457328018549997
C -5.031425895109846 1.0409605877683428 0.4572270629968274
C -4.879460016376339 -0.22983353642761792 -0.2147123796384692
C -3.8066021541628405 -0.9582561533356501 0.028649783767774106
C -2.789476513062945 -0.5343184214237193 0.9336555437514706
C -1.548300606550275 -0.6827095077568122 0.4970386615235121
C -0.36335487126047544 -0.7592318161889362 -0.035593358940873496
C 0.09989251209567561 0.3613145768413137 -0.7842456468073103
C 1.3076094048812652 0.3478880493360707 -1.3797285654289109
C 2.1123745793688293 -0.8231387384751547 -1.2394814534319212
C 2.9319497595352586 -0.8186362067144122 -0.20586411881292468
C 3.753810985284417 -0.7136920074564037 0.7972164894566524
C 5.017502490195947 -0.1056157439060481 0.5458595189577582
C 5.957232698268317 0.07139169120524792 1.4640432022317693
H -6.838069233213739 1.450953834216146 -0.44664970621825784
H -6.21714999677429 2.7600338271553886 0.7412467973649294
H -5.623177247868565 -0.5793410696967581 -0.9003660556853249
H -2.8466853500225118 -0.1166204533737139 1.8986765584669398
H 0.12887961534019748 -1.676908863265871 0.15766465314474867
H -0.4919876010482526 1.2479678473224227 -0.8987295389389942
H 1.6693152894923986 1.188553128334228 -1.9484381808219724
H 2.1786620857349925 -1.6997746218602472 -1.8133094902958722
H 3.3812344485684407 -1.1010252831443872 1.7128885629375312
H 5.266688583597397 0.24796592317765792 -0.4433666699273718
H 6.895315966697246 0.5359542120720452 1.2246025720354354
H 5.82575387839231 -0.24300035783520862 2.498641354044819
