32

C -6.5574157819887136 -2.8189112832023793 0.8176497598154846
C -6.063793997822027 -1.5969448537306008 0.7876505679729906
C -5.669494563622451 -1.0068368328828834 -0.4436637979807006
C -4.605313080676205 -0.2259181169949282 -0.39962307164002897
C -3.549047340842173 0.4983761721546867 -0.22919715900389856
C -3.5835029018961064 1.8782719425240302 0.10299926739311084
C -2.2885029415786318 2.248300589351406 0.19034115047456973
C -1.4404392963637163 1.0852291478067535 -0.09074778349762734
C 0.021264841154792994 1.0563831388150504 -0.09964159401916987
C 0.7333587279383426 2.1178601204340817 0.15491696022574028
C 2.2035719109887633 2.0529755089711346 0.13733609413588188
C 2.635877347019896 0.9080607838435815 -0.647206890448675
C 3.4344169631515706 0.05499273440817832 -0.04258709106795895
C 4.312389775753531 -0.6702573061874528 0.6199697249712842
C 5.674448530069806 -0.2787592919161653 0.4958432111356709
C 6.513359502623866 -1.2010871026009688 0.08416353585835666
C 7.290742457840755 -2.1821632395244386 -0.33429907529975306
C -2.216304218059195 0.0161032219862926 -0.34705916457836566
H -6.675403674168081 -3.405904668946519 -0.09765074196979352
H -6.875524337103373 -3.3203391541880687 1.7316852536720766
H -6.0651075731155135 -1.0665674148740256 -1.4165455580876005
H -4.3777302794282145 2.588484050698556 0.27500834858419265
H -1.9305321010197394 3.233673147655632 0.42705033529332337
H 0.529492068223373 0.12914635480786885 -0.3235192151160138
H 0.24802381147288893 3.0442277544451666 0.3785528074282113
H 2.6831312439303656 2.9944978065922405 -0.17085580719596863
H 2.4184437886722234 0.6334534976093221 -1.6408045292776938
H 3.865935414148032 -1.4563195373200624 1.1618760670543475
H 6.129333074515302 0.6618741597909193 0.6877435404077782
H 7.387193393470444 -2.2418915229984613 -1.3831323067920502
H 7.704459543817059 -2.767527704306936 0.4409656648973695
H -1.8873303071101744 -0.9624821022206077 -0.5830493479820802
