31

C -6.728473995545252 0.1953008671865202 0.8220668479788587
C -6.103021393116521 0.2620607063904617 -0.34729193178177215
C -4.684477353078492 -0.09115504051593613 -0.45734012123468026
C -4.024270203015285 -0.2875523529877783 0.9106831680086754
C -2.5651871118104297 -0.6462479751737087 0.5925558905799544
C -2.0331620193653976 0.5388396228941762 -0.17253938182489917
C -1.0559183698752923 0.336315771920923 -1.049994715399263
C -0.13597936279474734 -0.2145119666398187 -1.7850032187149847
C 1.1928042642172882 -0.4603730694073118 -1.2477603654109453
C 2.294516514963456 -0.31742568180395137 -1.9626064149689075
C 3.419798488753121 -0.6537911142033149 -1.0788556484477223
C 4.3393285894492974 0.484945137931591 -0.856914154542826
C 5.126691806247405 0.4791155335122776 0.17371210071729085
C 6.001916171092033 0.5378043625207962 1.1342945391548998
C 6.900012094999508 0.38525916557715295 2.0571276812366404
C 2.8095030058816297 -1.0032289765361087 0.22140392647138876
C 1.5144915857895884 -0.8818258016883224 0.09328501793191668
H -7.793287808770121 0.4814891455201036 0.7986399015455918
H -6.250220575378005 -0.11470796577986514 1.7466991778684955
H -4.075861023435452 0.6829663719780177 -0.9674990652802007
H -4.524183495389953 -1.0372049187233587 -1.0508438345751572
H -3.976346608156275 0.7237962970686673 1.3805166789156034
H -1.987394974337249 -0.8233979838691973 1.5142276320857155
H -2.6219284514407097 -1.5419545399467796 -0.059849970005453036
H -0.3635632849476617 -0.4904776728945118 -2.787284603391901
H 2.3798370216113924 -0.015752668149048993 -2.9902800799162463
H 4.341268686182889 1.2997230677320337 -1.5525857057376204
H 6.781387303415932 0.9150113006695564 2.985770349392248
H 7.7622011811276455 -0.24619460327144937 1.9432383786672744
H 3.305967148533681 -1.305674218903252 1.1267627740597081
H 0.7535521681922107 -1.0638304836697137 0.8656651466185549
