18

C 2.8840854456921132 1.3329987687197735 -0.7853134113283541
C 2.29652818786249 0.1540239898591754 -0.8273909668201959
C 1.546974674305547 -0.32216758462942385 0.3402303899636993
C 0.1741590581723365 -0.7657459317952818 0.025450050920422376
C -0.15522190996006702 -2.0218013268927515 0.28954802024695486
C -0.7867338462133794 0.20133007589872462 -0.5722909757640894
C -2.1539176967132283 0.06237119052963695 -0.04440102108399051
C -2.990185608373382 1.0895397597495686 -0.12051550031738523
H 2.8181507722475656 1.944949201377645 0.09429716380746378
H 3.434407901859792 1.6806638977251047 -1.644909530786911
H 2.113759778579966 -1.139016049339623 0.8312085023302481
H 1.4517765188985088 0.471625558895395 1.1411121592729303
H 0.5108193041038456 -2.7500318465434788 0.7209792909282592
H -1.1566798803343794 -2.354916252903282 0.06272726088167441
H -0.7549642329829683 0.1939603473823702 -1.6813188551505138
H -2.536555436171471 -0.8427788668941251 0.4141336945958866
H -2.6783894291999277 2.018869455939899 -0.5629488882845481
H -4.0180136017733465 1.046125612920626 0.25443704990773514
