45

C -3.4469527369663 -1.140824893565631 -0.19164058590692307
C -2.8501486321007947 -0.5452170531891968 -1.2133112240433055
C -1.4895615670952362 0.09221215619944571 -1.0630192320972487
C -1.3231200994303292 1.0029244407149285 -2.181555789968087
C -0.43588367707729264 0.7075519742959034 -3.07218758016529
C 0.26378695845915556 0.3215629137791685 -4.125408562120269
C -2.096922364676872 2.1985856222663136 -2.409752999780679
C -3.021808031489547 2.573705088613473 -1.5764454695141332
C -0.4336234315446171 -0.9467763067542635 -0.9752456460257132
C -0.7004995719176919 -1.873328939653509 0.18595847982475625
C -0.9333084384022229 -3.1455922118479207 0.02873744570301439
C -1.1876773060902754 -4.008461625800506 1.1934213051127116
C 0.9047574957852598 -0.37054840794860766 -0.7434682266363416
C 1.7048061278509472 -0.4957224974685225 0.2712236713280668
C 1.5917794819862974 -1.2115315681628804 1.517307466239203
C 2.2716666319672902 -0.5579344623958565 2.4722445297649376
C 2.885738133153039 0.6750795194677657 1.8468722166153189
C 1.840373040780531 1.74319719675707 1.8138681911810222
C 0.7346507436352859 1.6516052299226414 2.5138158686241394
C 2.0429605043630774 2.9305871688354097 0.9641541499730465
C 3.0765212236928043 0.1630954944395856 0.42473844527827126
H -2.9953617253373293 -1.1972819309911689 0.7796825529349901
H -4.421387498277285 -1.5821118991351721 -0.3709756395457768
H -1.5789223490033715 0.6940293498947205 -0.12301760648695637
H -0.24084846188477646 -0.22250570644372328 -4.860488865094034
H 1.2738892757932092 0.6464498109222585 -4.0375001973051265
H -1.9085473372034996 2.7983914330946225 -3.2800972194693596
H -3.5840693658800618 3.4732175952100244 -1.7752743711514545
H -3.2350893881469833 1.9967946048778316 -0.6895225235754607
H -0.4197849482659059 -1.5673587908313593 -1.877909492943269
H -0.939080643536051 -3.5769254550186402 -0.951177435019144
H -0.7588267031981892 -5.035010554200631 1.0400674672538435
H -2.265013888827811 -4.139079883641444 1.3266592487790756
H -0.7818839025604359 -3.5603738648278007 2.128523031709685
H 1.3295859777986085 0.2750476061147422 -1.5490523409431622
H 1.08000806879996 -2.116521000381624 1.7256156755292784
H 2.360719856705431 -0.8549021345612047 3.4910414190292163
H 3.787169012301752 0.9729147308160188 2.3515701615190134
H -0.022415061179712717 2.4089527260348897 2.49977452945419
H 0.5734158825483288 0.779701078095213 3.1317946207106098
H 2.1818076757893565 3.8483703800425664 1.5684219749002095
H 2.91547824615144 2.829803340140841 0.3067192946943757
H 1.14249832084978 3.0178740347564483 0.31224201588052297
H 3.879018636578385 -0.5903214585866808 0.4386633257096002
H 3.230105552326067 0.9366767178760035 -0.31930162148743874
