16

C 4.239671417313086 0.717933891101981 -0.1947592461110344
C 2.9344172935415065 0.8965675654698063 -0.1351399297534827
C 1.9916184728650979 -0.15273379882033927 0.1739780529677925
C 0.7044057838203959 0.14582155362013044 0.20510855945919534
C -0.23964647873047684 -0.8851878048423747 0.5101842978663576
C -1.4825548649603648 -0.6367516632404884 0.16239983818774095
C -2.719874625681682 -0.25931494541308187 -0.11787308985270627
C -3.415014830557054 0.4646121097178523 0.9343433315715606
H 4.850583473409528 1.5831628785201437 -0.4368940313210642
H 4.713804882843882 -0.21706476476782993 -0.019947059059366386
H 2.388887081456274 -1.1409454133232781 0.36670258164440894
H -0.1070844363559218 -1.8228726150179466 0.9741130628177594
H -3.0217840183184097 -0.545843821858238 -1.0841675659698342
H -3.4619501863950104 -0.19844017405344386 1.8400338451101252
H -4.4621351704343075 0.6591659039884572 0.6457181263250481
H -2.913343793816637 1.391891098918672 1.264710431478181
