20

C 4.016691526852355 0.31100784010601795 -0.8019475716631578
C 2.957210196723354 1.0060217251242969 -0.4211625332605572
C 1.5667452786240277 0.563224121637755 -0.6046390545205035
C 1.2590962625534596 -0.5376314806087398 0.37802823740307634
C -0.11561997564620008 -1.0457409455442166 0.2684947970291421
C -1.1493801854775205 -0.2795450647506224 0.5618883011160072
C -2.5534555777570778 -0.764833296820702 0.46103792453718984
C -3.3951487046829554 0.4086880168917314 0.005432382521668869
H 5.0174033413332895 0.6779360120824394 -0.6455751140918284
H 3.8961658636199337 -0.6476796516709772 -1.2819126838140158
H 0.8804555698530896 1.419558355155332 -0.4433854113434711
H 1.4400341030782982 0.25273149632565595 -1.6555615498292935
H 1.955777922323199 -1.3955272656193953 0.14705670131933746
H 1.4872098269479959 -0.14897359205382713 1.3881232168930993
H -0.9909611212633983 0.7420572171931881 0.8896420816448913
H -2.6643531905647158 -1.562847384932665 -0.29634948159851027
H -2.8564368246647645 -1.1395804119683883 1.4601297916246492
H -2.939442758154459 1.3433474091371116 0.4186068165531368
H -3.3845390518810947 0.42305210100365986 -1.1075095674256865
H -4.427452501818763 0.37473479931212333 0.4090550033134422
