21

C -3.1038441068644094 1.3825220206310254 -0.8639963259405848
C -2.0130985275551674 0.7292407725885678 -1.236512620121601
C -0.8704854785484617 0.4789290087244836 -0.3486799917155325
C -1.14792729114107 -0.5237157323271128 0.7729303403076605
C -0.7679534691382989 -1.5978148756609063 -0.2274178453695101
C 0.07907286375927032 -0.5374415793173619 -0.9003468734085751
C 1.4705783605220146 -0.46159045281923555 -0.4928966111846063
C 2.005575193109716 0.24355185966553913 0.4555774456214015
C 3.4657225801303584 0.17021471957224754 0.7039921651655674
H -3.9338101480523613 1.5585550901422147 -1.5259331056541547
H -3.152963348874424 1.7481094617583999 0.1426755604757364
H -0.41188036788451404 1.387412282396538 0.08866585050971701
H -2.238611790298544 -0.5027876138565753 1.0120591094857507
H -0.5051638944508234 -0.4389548249448072 1.6469045176380277
H -0.18182874909861446 -2.3865034448889504 0.29852488331272076
H -1.6254725239796846 -1.9658967938319034 -0.7944871262409409
H -0.045571142485830156 -0.6312169317441156 -2.0026659655071777
H 1.4105022058126082 0.8908833563746035 1.077593979041595
H 3.7735036392908095 -0.8366065047512806 1.0548434622950429
H 3.8265985296125495 0.9308166755543638 1.4158527223346156
H 3.9670574662387748 0.3622935067304956 -0.2766835710464351
