13

C -2.666292747684821 0.6451074834678313 0.04283346128824406
C -2.285835513625611 -0.2631344225464561 -0.8373114827867648
C -1.2017054549205486 -1.1663496963061468 -0.5208453144366355
C 0.02174931582147195 -0.9701291189250615 -0.9217280409811768
C 1.3077294275501596 -0.6803214271381697 -1.0528819947963184
C 1.7965680525936205 0.39313021219310806 -0.20146754966146835
C 2.6703298742405224 0.24866547283438595 0.7476038101394231
H -3.4775407123611934 1.3037506411959099 -0.22285089452821444
H -2.2181287864674735 0.7735563290956861 1.0149288463215604
H -1.3918797681308042 -2.036770444305327 0.07023927344951658
H 1.3718700256162006 1.3823395813974702 -0.40765276244475185
H 3.088163796201662 -0.7187357019087668 0.9520663222908624
H 2.9849724911668027 1.0888910909455556 1.3370663261457116
