12

C 2.2340956527573814 -0.1384972573042773 0.30250379092144386
C 1.3548833632553938 0.41612144097357634 -0.4938400227409385
C 0.020902755735035725 -0.15054452044068853 -0.7833572998831722
C -1.0826276783839577 0.6178399178406866 -0.19276522542345875
C -1.8943778085318175 0.04207725031831826 0.6685796557304735
H 3.1891161784340754 0.38742039379847654 0.43133005371796257
H 2.101277831686647 -1.0690316608650583 0.8440306559948143
H -0.138980480233653 -0.1427451501365825 -1.8996123384293284
H -0.04566779326238023 -1.226816128137432 -0.5009867624193982
H -1.2332459538497518 1.647532011264706 -0.45817806197264077
H -2.7059676565480477 0.6088844713378769 1.1022882808882308
H -1.7994084110589272 -0.992240768649583 0.9800072736160387
