25

C -4.8920133084197195 2.0583784093350124 -0.47008529969237056
C -4.453326265653753 0.9838730695090195 -1.1071908679588687
C -4.249834978688001 -0.3031922272132925 -0.5301410453826789
C -3.022399572385943 -0.5697592151719553 -0.14356847996505753
C -1.8073966019576757 -0.7219387128441145 0.2044565979768418
C -0.7745327583627489 -1.2791455990286378 -0.698257709854479
C 0.3943879767540942 -1.0667774124654836 0.1866996980377372
C 1.5953335220704075 -1.3013320265288075 -0.21832049238634246
C 2.8205048143949494 -1.4542090331180617 -0.6528548709882925
C 3.4179125484120485 -0.2733186924603048 -1.2602785264358605
C 4.1297330874898055 0.48536941073341844 -0.16277882400494056
C 4.367887060260854 1.7749301492071334 -0.26503528593081094
C 0.07054316492608521 -0.5909402314915161 1.4818763425061199
C -1.2643411955573816 -0.3854338394285677 1.4816727510234167
H -5.149372783584269 2.0821833394232123 0.574800535779579
H -4.9952972435839795 2.967689930920681 -1.0462611916558426
H -4.909170434534644 -1.1033871740993644 -0.3486051048752159
H -0.9395601967921552 -2.383612822485419 -0.7505236620875926
H 3.203182107093889 -2.4245408483351345 -0.49819253177036993
H 4.1361638013122 -0.575859006164745 -2.0584377176546687
H 4.455826592904544 -0.040831958947253354 0.7360468651885912
H 4.033567532859782 2.282468472589814 -1.1720493455647119
H 4.877793370852884 2.2819298541065023 0.5376768454487479
H 0.7431356533844717 -0.4240174698355958 2.3046322813986735
H -1.788725893069311 -0.018526366024025947 2.351577784613275
