26

C -1.850001494757374 -2.50747851743192 -1.3716914365736683
C -0.8358405256702209 -2.2132688240836154 -0.7314754673404905
C -0.339747982774883 -1.1952952689075653 0.14767032131315583
C -0.9929723272575203 -0.12784654032729414 0.571664766353563
C -2.4160713731204995 0.24246942316853703 0.21661970929596316
C -2.9497236559932456 1.4709327890946227 1.0028199020287312
C -2.7369191984182937 1.4750661457589584 -0.49834512833626254
C -0.1564999351150594 0.6868044756489494 1.455299828827745
C 1.0114482264074616 0.08502474835899544 1.5526627064279066
C 1.0253045433874695 -1.1433362858219425 0.7564442231188777
C 2.0983771319904005 -1.1980390159136192 -0.2288783045708801
C 3.0835936407977065 -0.35804764182304877 -0.23460505713495453
C 4.1459678751611495 0.3957564213857938 -0.26057917793101226
C 5.346922295383174 0.9191190798900395 -0.07732762414636353
H -1.850393521581796 -3.442185469028893 -1.9756593961898412
H -2.76128586085501 -1.9563890530853043 -1.4327954075752496
H -3.1817969698625874 -0.5826937111586519 0.3009649585552212
H -3.993502482282247 1.439757518256891 1.377096878671063
H -2.277529457509909 2.0644034905858577 1.6042199174358371
H -3.6704200502989033 1.4836257972769873 -1.0964826084630135
H -1.9093047301410284 2.0798725313991473 -0.9270892607804879
H -0.39152661188425764 1.627652647171557 1.970559690907402
H 1.8539002858000704 0.4657490768387987 2.1548290585782888
H 2.0828091663975346 -1.9599879892165826 -0.984790270667158
H 6.1641995208530656 0.5500556132752791 -0.6719013527787782
H 5.50101349134459 1.6982785586880893 0.6523532031494013
