13

C 2.0446564303302663 -0.6843142587598143 0.6594855662888199
C 1.0222796821945248 -0.4954177211702119 -0.11966110231120866
C -0.2053638621289515 0.17374033769027578 0.24160773226131663
C -0.35135727328539096 0.6523720885534947 1.4545407280226457
C -1.2733990806494462 0.31967012731324795 -0.7230009719721081
C -1.1314506274878275 -0.16143032878824567 -1.9484537841031326
H 2.90814440802227 -1.2107476010881586 0.24187550331267846
H 2.1440749681000266 -0.3790561060451555 1.6840753178583499
H 0.42248067780078663 0.5704774204418399 2.2233894521333366
H -1.2709095944533284 1.1555877517354105 1.7309513479659657
H -2.216762321892163 0.8133810345932311 -0.5053929732723771
H -1.8952972811710989 -0.08132771024974819 -2.709469201228024
H -0.19709612849226862 -0.6729350334656163 -2.2299476018811943
