27

C 3.0124368868016256 -0.035901092173852484 -4.133467571856138
C 2.272885444971928 -0.432377390665508 -3.1079919898391912
C 2.8370685450497124 -0.21029670984812662 -1.7677142073256926
C 2.0443729794525893 0.5524849721322302 -0.8265872835630343
C 1.5926210741043636 1.83243765223168 -1.333003813360644
C 0.31771531155915217 2.105371830180303 -1.0744808074641254
C -0.876332767611562 2.331158502771384 -0.5411569465307823
C -1.2734242143547783 1.51707630052793 0.5986074352174522
C -1.5829962164753626 0.6883855442055642 1.3768647466309458
C -1.7507384944582591 -0.8661221070386644 1.2435907389174752
C -2.107179895263133 -1.3634452325613706 2.1257109095573608
C -2.6254056492900797 -2.200522996104502 3.358421992342104
C -2.905049661339308 -1.5059972947118803 4.324341688508332
H 2.99232415360084 -0.01351014289117428 -5.127938543364893
H 4.016007898812096 0.4336655155698264 -3.713241399243717
H 3.8504879156330665 0.2915349305624711 -1.861266963038916
H 3.0497682451482206 -1.2668494863514108 -1.356375318172151
H 2.7882150783979123 0.8155780087498692 0.09738658443595002
H 1.3150162596157517 -0.0714223247169918 -0.3351085701406689
H -1.4649940291194086 3.080350081637185 -0.9350977882547432
H -1.2263455348970431 2.51985147515275 1.4861575647097518
H -1.8415506760559617 0.9072766808385386 2.4682192897739985
H -1.4299574887802549 -1.1928941040039422 0.22398976017902839
H -2.442171285904523 -2.6153109381758313 1.405217786573453
H -2.6071798800255044 -3.2588748968836194 3.383034021446264
H -3.2963180778420673 -1.697741970749296 5.333207761625577
H -2.659275921357368 -0.34390480723920863 4.362131075495781
