22

C 0.10867486877771955 -2.8646027500677222 0.45811669679442574
C -0.6109400155972513 -1.9341629266285627 1.0709596083142106
C -0.36439774333538616 -0.5180583017526513 0.7245552505719777
C -0.6715059837732161 -0.18432894547997813 -0.6804887424949013
C -2.022870674861986 -0.35499311771107317 -1.2212385329711204
C -2.970875277054516 -0.8094995251900016 -0.44379760358256115
C 0.2953501292526358 0.27386868198319125 -1.4478969816240648
C 1.6288052432157267 0.44264137315368735 -0.9129276445179212
C 1.9971787508466494 1.4710582401686751 -0.19147283917935326
C 2.0151292777271093 2.420051821285425 0.694131000213397
C 2.17770627923557 3.2934412798172943 1.6441254371773752
H 0.8619538109141591 -2.628917501569847 -0.2785321100121737
H -0.07046016549303265 -3.891656952289014 0.7096943367553114
H -0.9991163416642501 0.11295076389120054 1.3838926217351677
H 0.6801951637612749 -0.28508091278470665 0.9299628233618509
H -2.2195134594321013 -0.10841938547087948 -2.2377691078627584
H -2.8542180229978396 -1.0796175045084593 0.5877062175223088
H -3.992006079238702 -0.9435522021569599 -0.8355818584029191
H 0.08013741636058824 0.5186820068949881 -2.4701002327107475
H 2.404175828734428 -0.3050579883722837 -1.0960832924162358
H 1.6735612089280192 3.243507054056206 2.5996669116764215
H 2.8530357853879753 4.131746792252083 1.4962412425239757
