40

C -4.423977454817921 -2.7034836636523565 0.07027907857944465
C -4.147702234159799 -1.7450423373295956 -0.8053086094416726
C -3.390518494832454 -0.5614229644437065 -0.38021856951098953
C -1.9673774131389474 -0.6937347837453453 -0.7132604601332398
C -1.0489054999056757 -0.420453252417364 0.17441224957298285
C 0.3693872951911719 -0.5742230321684441 -0.22485187874949003
C 0.7959460469599029 -0.9657625461118237 -1.4064546563884224
C 2.2750804832224167 -1.0078157815810307 -1.4591278655338018
C 2.6699144227776834 -0.9376403650637757 -0.01785800159722941
C 3.8644326118223256 -0.0688816325405859 0.2005280545982096
C 4.947359242896481 -0.5154011417093078 0.7994576997940589
C 6.097984608729033 0.40681984185692427 0.9820788589313675
C 6.419030207221138 1.0148798014801548 -0.36719635118992566
C 1.511272267890478 -0.29369307577739184 0.6967401090375394
C -3.952750971898199 0.6681500731336346 -1.0839060868045727
C -5.364883699098267 0.8030136800878908 -0.7071734334642886
C -5.5434532877703715 1.9524085437658638 -0.09159934824449406
C -4.274808304834836 2.625949050644345 -0.03146294516981549
C -3.3177782882577085 1.9178820361886786 -0.596075873884571
H -4.1010196317217416 -2.6232007544628306 1.082609714685009
H -4.989308165645073 -3.6010660409169137 -0.21998385413410987
H -3.5084610945643453 -0.34712992901521234 0.7175454315176771
H -1.2877282348586212 -0.09226115133998508 1.1709513097948259
H 0.10009787777149745 -1.22054337127731 -2.2257532927397174
H 2.6289632567280834 -1.9697857550322093 -1.9143183411969416
H 2.638084001646179 -0.15497678457069822 -2.0677492995028444
H 2.8374445604786933 -1.9625853047908401 0.35275945401510334
H 3.826150158226606 0.943833987711261 -0.14452880325412915
H 4.974372656646704 -1.5420570703100518 1.1443191883944814
H 5.7577885715915125 1.214306379177064 1.6667146774002677
H 6.539554933828572 0.23061164343572932 -1.1151132332656974
H 7.3647759066601655 1.5993579872729318 -0.32881950389468667
H 5.627958110324957 1.7109970892152615 -0.7159196774965247
H 1.5998598293171193 0.7907604405431622 0.8049689938580334
H 1.350929573634955 -0.7223361528780454 1.705474210658329
H -3.8072460942661617 0.5837976771903657 -2.18502195356355
H -6.149587788854421 0.09941921542544849 -0.8883133293233673
H -6.494293497585352 2.33657856914781 0.30920703788244347
H -4.148832405896559 3.6117145495694416 0.435382798877681
H -2.277754061459589 2.2130163252896122 -0.6756899465772453
