14

C 2.969164190296221 0.45320017522529377 -0.07157035660612107
C 2.014131148012856 1.2504220507684283 0.3543016970447856
C 0.6568598532721086 0.7799114163955578 0.6050252223373757
C 0.2969857231769737 -0.4839650431883044 0.419674027616029
C -1.1150204608873788 -0.8472977546351638 0.7083974057149551
C -2.050106336796773 -0.25959772264339537 -0.3340873415293882
H 2.716325432700273 -0.5860782430158062 -0.23525755036668558
H 3.9555726403330493 0.8049503865711418 -0.25160598160711967
H -0.04667897002100878 1.543431094225939 0.9576918278311439
H -1.3438565105430487 -0.40331880665292974 1.7211814419977038
H -1.2535511237033063 -1.9461662236300434 0.8100519329570919
H -2.6730576407492963 0.5471763535953476 0.08105674525531319
H -1.423605844695117 0.17868140197563517 -1.1272541830371836
H -2.7031621003956023 -1.0313490849916809 -0.7880928415450138
