13

C 2.6562094924567914 -0.26558919578538914 -1.7280115546241601
C 1.5234208951343364 0.38755329383688175 -1.6558906623280911
C 1.310220457696833 1.4029075419557338 -0.6035337125611684
C 0.425942978725224 1.1807971906719663 0.31329077014320666
C -0.6702704495019219 1.0572441265787604 0.9815540921561648
C -1.6145778676567546 0.7935521004135762 1.8293884887492957
C -2.7300777305691697 -0.0618474119674455 1.3739767332296389
H 2.8036214093279206 -0.9978306455871547 -2.4907826062613863
H 3.431717030490125 -0.06416114233844507 -1.0225339085385763
H 1.922601996496728 2.292590930699378 -0.6661293738947587
H -3.3502123138282243 0.5375867729525097 0.6458868511896904
H -2.3700458995843783 -0.9326762449693498 0.7852554084854244
H -3.338549999184618 -0.38404325394045924 2.2375294742582903
