38

C 0.8123386910030809 1.4546155122241307 -3.2287771491064032
C -0.19792811250802178 1.672285424011807 -2.4545149672969035
C -0.8926569543362471 0.5712861946969502 -1.749086545648889
C -1.9409257180994643 0.8790708210737119 -0.9824016496297973
C -2.683144579241603 -0.13661687359051247 -0.2564858033886727
C -3.7213020341768708 0.17696472350509887 0.4992742619084339
C -4.304096823218161 1.4666300206551526 0.7568438201627404
C -5.332926140116099 1.2778984158437265 1.5805799432030625
C -5.461337013410705 -0.13984176077759383 1.8920812779999785
C -4.512182907665441 -0.785184570693103 1.2547988883782883
C -2.2349560486760947 -1.5160971045021079 -0.396550807759151
C -1.2014782560853827 -1.8195780757215356 -1.1435433049828878
C -0.4434771349143478 -0.8105033196199823 -1.8670175573980299
C 1.0283882820033596 -0.937975393516261 -1.5891268656815836
C 1.5213804697479159 -0.2455525932415933 -0.5769093010416667
C 2.967339604411685 -0.2961483530149736 -0.2105888136630311
C 3.0539780541713903 -0.8163379341979653 1.2274649182661852
C 4.465117370005978 -0.8699932832053384 1.5966160174873554
C 5.223079435605157 0.10201737945536431 1.14069889402758
C 5.905083409813705 1.0949104345634326 0.6410651932439766
H 1.249519243628377 0.5100753314922166 -3.4473419281217232
H 1.284341112127859 2.3178521037699444 -3.7227048701180063
H -2.2122460226008487 1.9295709764078444 -0.9280348905537338
H -3.9680783239749355 2.405056721653543 0.3565644633714582
H -5.943491467574551 2.09406168632871 1.9304982891887166
H -6.223600954390257 -0.5401640790721536 2.5413801285920337
H -4.375329035209955 -1.8525883814103268 1.3087576550527409
H -2.7628584155071616 -2.303855508703568 0.12393889635537089
H -0.9241144800905483 -2.8937837826762745 -1.202609247996836
H 1.6901049314577623 -1.5517656074265296 -2.1599842695838594
H 0.8606903166091661 0.3748686571464816 0.0025269562954779714
H 3.418072805203178 0.7147397840235427 -0.20625942859093913
H 3.5362049791701415 -0.9445186677193673 -0.8968484200774596
H 2.5158158644329873 -0.09990434447388385 1.8815261020284566
H 2.541273337504691 -1.79553011482603 1.2843723243436322
H 4.985787196357379 -1.580223689538254 2.1841281134341464
H 5.9512051579117005 1.9642855378899708 1.2694177400513176
H 6.326410160631717 0.929973713185807 -0.312655076751547
