28

C -3.461027589070148 1.7677135281013596 -0.6658638256174733
C -2.2870458994417455 2.0456209908554635 -1.029472358212551
C -0.9856562147143816 1.566142939810361 -1.0022670929348054
C -0.5667749751818558 0.45543874122557176 -0.467719435335217
C -1.3756714659910265 -0.5530833908434589 0.23457301649459178
C -2.200526916144752 -1.3967810446444549 -0.7147271408742157
C -0.4183107289195551 -1.4449944475872998 1.0138152550083521
C 0.9412786126811339 -0.780332140917632 0.859848290284771
C 0.8696533094814207 -0.05260379338998966 -0.45794665873471757
C 1.7273764920264807 1.121243597612399 -0.5471326105987054
C 2.998472119183033 1.2098059272555295 -0.2651758698926365
C 3.858354698728892 0.11598640276267938 0.2149569979767256
H -3.8183432445874095 0.8827337760159297 -0.11808618558352284
H -4.2500206530154445 2.520169697720916 -0.934428205940496
H -0.19805859258662575 2.188037718312348 -1.487188847451996
H -2.067175324365248 -0.13950073544151434 0.9945184009495881
H -3.2417294382252173 -1.5220310000032737 -0.36508166153229554
H -1.7661200098186205 -2.419112005768115 -0.7842753194458444
H -2.2564052236979717 -0.9173655482527286 -1.716867529007767
H -0.6740114657831813 -1.517121343430517 2.0726954477203194
H -0.4496623203665188 -2.439492680649279 0.5738654261787197
H 1.096471459712708 -0.03258495283862077 1.6460830605831613
H 1.7028653389983595 -1.5849709908284484 0.8743087395546708
H 1.0104280727174748 -0.7855457607263415 -1.270007616095673
H 3.466791574848483 2.1977309354715517 -0.4009188476847481
H 3.7664218841709602 0.014337574788984831 1.3244983685935454
H 3.6491073409149855 -0.8379201399281243 -0.3154521782375994
H 4.929319158446001 0.3384781453168487 0.026323366413991443
