24

C 4.55231363748908 1.063788533091647 0.4502244210613347
C 3.780665731602947 0.14854074325824035 1.0296168129269399
C 3.094184005132845 -0.833297485893268 0.13676982254977654
C 1.7913222271080216 -1.3086448183040553 0.5577552739406263
C 0.5851007504696943 -1.8038063353266534 1.000457097804769
C -0.6187635500215088 -1.313383102308618 0.49575751797348566
C -0.6168527869956404 -0.32282355082269437 -0.4564385577325293
C -1.8392916484609918 0.25380478686867614 -1.0445203665269625
C -3.0348699384252797 -0.5467194504882458 -0.8576940747046711
C -3.9495360732316214 0.21180039514926882 -0.28060132133998283
C -3.41555385472275 1.547395818832542 -0.05430613414818261
C -2.1750268780872974 1.582289859122894 -0.5001524452660598
C 0.5976845039995685 0.16581169263912623 -0.8926368505942979
C 1.793026646494249 -0.3203669401894411 -0.3922530628325848
H 4.716383956651778 1.1482225743181393 -0.5986525012195026
H 5.0668496856280365 1.7959785473289074 1.0881472223434978
H 3.7070707219478107 -1.3451039030588694 -0.6162239373376689
H 0.5624907292886806 -2.587104968690324 1.7528361955767857
H -1.5768420608482523 -1.6886064331810147 0.830011987550934
H -3.176710926210015 -1.5825029510547277 -1.1334716402126257
H -4.968862626401235 -0.06542025411275873 0.007033069406602456
H -3.975261426996339 2.378237132191846 0.4149551190076204
H -1.5537067221329337 2.4770633884543014 -0.4456269125649706
H 0.654185896719011 0.9448467221744017 -1.6399818670558368
