31

C 3.8039649342176087 -2.807594946074659 0.5210571497313172
C 2.843849799275913 -2.156315082691097 1.1452196393435825
C 1.4778924252228596 -2.5457246542008654 0.9632360200005564
C 0.8694718422423321 -2.0151926382415883 -0.06883245773491956
C 0.3013932672884476 -1.359413311013347 -1.0686431110086863
C -0.2784978581413837 -0.1028025830084529 -0.7341886144185626
C 0.5096911397866166 1.1070883562039697 -0.4801734700524166
C 1.8286717748427015 1.0953409270566372 -0.5496724886267942
C 2.5988333355440236 2.304903709662757 -0.29482409506342305
C 3.9123982134040896 2.3398545075358013 -0.35271235229392733
C -1.601839788288255 -0.012734408252012965 -0.6454752453882895
C -2.8388413985721845 0.7507411337682435 -0.39759022421514467
C -3.426884517202328 1.873501521114441 -0.09524863077015824
C -3.8354958758302087 3.102069588656704 0.14991844516059535
C -2.974159235576662 -0.6227412846113596 -0.7242755570358841
C -3.1931397001054593 -1.6934510003977181 0.27920102807285135
C -3.7713923961064224 -1.4935172033341253 1.4481204824472493
H 3.648011201014165 -3.6413147058020914 -0.14144451029661126
H 4.819117228195196 -2.4854702885552262 0.6829149780005672
H 0.8703944204927057 -3.1969385403408492 1.530346136996255
H 0.36628993222442363 -1.8775324880627902 -1.9826396071475088
H 0.015021865773491093 2.0346256997472163 -0.2299097516622322
H 2.369908814866944 0.1903346634503986 -0.7968164973782976
H 2.0455099276691655 3.2151237395014425 -0.04580088690675928
H 4.500783012832891 1.4677349868663965 -0.5942530005485561
H 4.422245974502712 3.2682136723751167 -0.15300957728673215
H -3.8122557929009657 3.3881229895797924 1.1767917869542959
H -4.1458449688725585 3.686920389562178 -0.6822705912229882
H -3.302789072703137 -0.9309011617386505 -1.7547982171156116
H -3.8801938694963094 -2.3493052859790144 2.105103864372299
H -4.142114635600887 -0.5336263027769944 1.790669355093916
