22

C -3.8433707576097036 -0.3250110234291367 0.7782674731111849
C -3.1571058773342253 -1.210327373216053 0.0876749166600126
C -2.21597025451054 -0.7755002953345 -0.9768208422863108
C -1.1913376517563834 0.16972089929506246 -0.47373632208331806
C 0.08450345960184134 -0.16250468366506785 -0.5670799088448889
C 0.4640019988493603 -1.4686810426365555 -1.1706459626591308
C 1.1457424234262612 0.7152609751840644 -0.09432531918331545
C 1.7497605625520019 0.4566592364815185 1.156145913344567
C 3.0423610689369154 0.28201737584660846 1.0783434585714284
C 4.328490009681022 0.4033792129329978 1.2575553480155248
H -4.5182500582457585 -0.6536561842541572 1.5428022748287398
H -3.7310077910321278 0.721666402643 0.5803405757802106
H -2.7895786259464113 -0.25339569033765985 -1.7660995342669412
H -1.7372054719590064 -1.649431480483337 -1.4602454553395727
H -1.531336510823465 1.1002180347659634 -0.047306270040389634
H 0.14636490955401127 -1.5490440126502023 -2.230387352295373
H 1.5563777952094977 -1.626885248754482 -1.1658884654293515
H -0.012228302615303836 -2.3208303704811555 -0.6090744539405345
H 1.3364707163166494 1.6170822734494141 -0.6317234910539825
H 1.197190967003004 0.4115763548185014 2.0679773004329514
H 4.85002293191138 1.3086778383285311 1.4404147785465102
H 4.8261044587908914 -0.5032590675738662 1.2038113381318998
