19

C 3.71228850180662 0.5358225476151293 -0.843498252878263
C 3.3952629635853997 -0.7451263582168645 -0.7190935081259248
C 2.269986063972246 -1.1786600685965714 0.15261721297530526
C 1.002041170998528 -0.8196740916728387 -0.5091062516388322
C -0.15085515393518 -0.6292340553452803 0.12134328027070765
C -1.3179538857905475 -0.2714344968062048 -0.7357206198148794
C -2.581221583742857 -0.7979599213451499 -0.23110093175283267
C -3.35643726033172 0.23350827302576083 0.02742935329408096
C -2.67063768542514 1.480239772117342 -0.28278650353230755
C -1.4518852331745116 1.2069369502657519 -0.7401316936714928
H 3.130192032151766 1.2531948932310488 -0.29409626520238075
H 4.542228633355589 0.7906974400138311 -1.4932052836496155
H 2.3735239122582774 -2.2997165747279227 0.24450674709143713
H 2.3568268358651223 -0.7778419795990038 1.1773494902432449
H -0.2715760820477969 -0.7210279564120223 1.1997594259571496
H -2.8392122276674634 -1.8270072234060262 -0.09326315332195152
H -4.365231280095961 0.1837590692693563 0.4164076094423353
H -3.0709616722397715 2.477919122837509 -0.16683673245975017
H -0.7063780495424162 1.9056046577522656 -1.0525719222738878
