34

C -5.319715108573102 -1.364516823389512 -2.7383521417766024
C -4.299129178648444 -0.5213833739574523 -2.7197943109670444
C -4.064759671068814 0.4604331376560923 -1.653651081065418
C -2.6004774984436807 0.8408555553311927 -1.529618892137604
C -2.399589589337947 1.8287161216400785 -0.4501496555696591
C -1.6025243543558698 1.3374411256460192 0.4817429899499072
C -1.1612223372594686 2.0449149943568603 1.74185301174067
C -1.237936598623556 0.002992032065664449 0.0648817475512278
C -0.34461027594712923 -0.9156200114671487 0.8298164696053268
C 0.9718573605721722 -0.2533811597873529 0.969427790505171
C 2.0399253643618027 -0.8401074608914353 0.46848319091870233
C 3.351279060450299 -0.2370994787931793 0.5765869761152305
C 4.405311345428584 -0.8408724238825215 0.06868812490130319
C 5.70197530039342 -0.21639379715341966 0.19100517367573555
C 6.761194165206263 -0.8028734119777579 -0.30833306512360775
C -1.7910503020254973 -0.3125098101829088 -1.0805050606746938
H -6.065624956537813 -1.3877830267940192 -1.9530808754652975
H -5.431488354034149 -2.0619917989639402 -3.5556136362367243
H -4.673428484511412 1.3589965652117806 -1.8445006693866444
H -4.372844304670248 0.04340726209765758 -0.6680333517487385
H -2.83021091729673 2.8309809824411243 -0.39378657405746365
H -0.28165659706445956 2.679226967772668 1.484745125673365
H -1.9882626326024109 2.750548556437911 1.9854144472101336
H -0.9799891272404213 1.3322419691288712 2.545960862030057
H -0.2453451981353621 -1.8963121806528114 0.3628424071672041
H -0.7715421844474897 -0.9873979203993897 1.862616210677462
H 1.0697961271617185 0.696070719035906 1.4717329643701118
H 1.923465415952134 -1.8039812718315498 -0.03855964399726811
H 3.440782149304123 0.709367304057079 1.0786790792032075
H 4.247971827046429 -1.7973831776276437 -0.4274331344326278
H 5.805202019180072 0.7231057906763749 0.6869826468429174
H 6.672036524766956 -1.7532687403218725 -0.8126310269791728
H 7.750378282701309 -0.3709538174142662 -0.23933286856103964
H -1.6797672717071466 -1.2754693980656469 -1.6299076295010413
