19

C 4.599786863127267 -0.2600097441684545 1.3934819149841233
C 3.4587476408659357 -0.8383387279215296 1.0925295190970608
C 2.3909945842731637 -0.0573200181644145 0.49448866035320016
C 1.227252167589068 -0.6214835330310936 0.1814043156296211
C 0.16974418222609233 0.18238856874601445 -0.4181634203492804
C -0.9837054084624453 -0.38092402149702015 -0.7274955277097833
C -2.0907639242261147 0.3872659508154603 -1.3376031954558303
C -3.3915750075428854 -0.1988942679036005 -0.9191201081698458
C -3.955535270684248 0.16016351678686513 0.22518732613066247
H 4.720125546705434 0.785797685603799 1.1895412461020038
H 5.412446886273445 -0.8122172442572858 1.83855030290612
H 2.5374741195706316 0.9879088718309659 0.30076095074722076
H 1.1092097314087155 -1.6774406820065617 0.3886527828544297
H 0.2936832557500879 1.2317155851646293 -0.6215502110695259
H -1.177048070450609 -1.4418538826437055 -0.5480590212951058
H -2.051230607214998 0.44074941267588424 -2.4295758264352205
H -3.9105334443098294 -0.9278719464089565 -1.5296801174566645
H -3.457207710628847 0.8969802675415146 0.8692691005675869
H -4.901865534269729 -0.24860575465676968 0.557381308569235
