17

C 3.619405217716003 1.1823900904399456 -0.48414274371558025
C 2.3610926499824676 0.9160230192911019 -0.1772290113394113
C 1.5671245150803859 0.12859429312593007 -1.0505922906524752
C 0.35334293494448643 -0.17148532423774773 -0.6090293864105373
C -0.8086267104947804 -0.3953862078360949 -0.06885194221231108
C -0.8914334738226917 -1.5924518669199907 0.7525315869973837
C -1.821497004597954 0.5714187849877562 -0.36472911762428
C -3.063647012606638 0.4524763870824982 0.13314119381280562
H 4.081042373866068 0.8189671778142095 -1.3911929329712163
H 4.223591068515284 1.7792132437362553 0.17634411675792208
H 1.7410893382542292 -0.27999689981862635 -2.0021898719300832
H -1.9212107643188907 -1.8660074668935673 1.0683548604861859
H -0.3448814034431087 -2.4300946924425166 0.27660537099373633
H -0.33717074208787545 -1.3826199677945963 1.7132526626827072
H -1.6447749974002872 1.432508179159904 -0.9925892563006069
H -3.327189143585359 -0.36523050250529077 0.7616158892535189
H -3.7862568460016184 1.201681752810793 -0.11718303805130557
