24

C 3.1138917108559725 -1.7533165493286964 0.46742966514351575
C 2.6574233531754077 -0.5188638688461313 0.6862426033072411
C 2.1403596854231215 0.2820898171010636 -0.46914843729611544
C 1.8183922590642403 1.6597346987117108 0.008587013708917684
C 1.0796816520213697 -0.3891463531844114 -1.1981813650687585
C -0.13442565206954057 -0.2248893097188655 -0.7257288468770476
C -1.29047892181342 0.014885193770347988 -0.16058492073218197
C -1.9784671531335694 1.1894693143790127 -0.6550620656049634
C -1.6758194400489075 -0.9372787165474268 0.8624489680101267
C -3.1869174939996467 -0.9660291489196601 0.9569878181616132
H 3.4899698429468176 -2.3446584249245443 1.287155428040797
H 3.1271876316642206 -2.206144702564057 -0.518158642297703
H 3.023212438102167 0.38031769104642715 -1.1681630181482523
H 1.8964703331286121 1.722744324326403 1.1272189711160272
H 0.7909648565091092 1.952402217336838 -0.2575605418887107
H 2.481537326708246 2.4498877546427806 -0.4515849325952926
H 1.0973884022219311 -0.9973261167257903 -2.0540285307402413
H -3.0728643026849256 1.1086925198352304 -0.43178195234185346
H -1.6590563637167333 2.151608879795061 -0.19893111619351117
H -1.891341809578667 1.301662366944216 -1.7749772797165928
H -1.1795744937318706 -0.8327713971755651 1.8339495791695264
H -3.619834649103839 -0.026787034815045605 1.306014259038828
H -3.564875570433973 -1.187375076477571 -0.06704803152435747
H -3.4628236415060725 -1.8289080786612808 1.5949053753290252
