17

C -1.8499732117521124 -2.8837834566220057 -0.9006665524842583
C -1.3247285893331093 -1.7007708975110922 -0.4408586454718909
C -0.537442707022282 -0.8873050648665941 -1.3508307052223216
C -0.47856832778749125 0.5968370161174147 -1.0199164178819147
C 0.01888282849904905 0.9083078480104445 0.12931401723777056
C 0.5362067224787045 1.2294246496692058 1.3734837096722778
C 1.05494935172526 1.5782043255900853 2.6296995984375724
C 2.2901657084549956 2.002442334131146 2.748149080155126
H -1.5568959501538997 -3.009798400712484 -1.9673526900881906
H -2.414327086891889 -3.5629200762032687 -0.37355553233354566
H -0.9695425688276343 -0.9614988102767685 -2.3944579517331617
H 0.5444675049471865 -1.204819703575234 -1.432362909799176
H 0.12518368109683542 0.9913008044734922 -1.9637894501270292
H -1.5028650766688436 1.0599086865292453 -1.3087684346956365
H 0.42605067666990504 1.4857881376298727 3.5038934215285957
H 2.8913200350060073 2.0724337699524766 1.8328824761330542
H 2.747117009613506 2.286248837691551 3.660046922502859
