33

C 7.023115585966034 2.298790602316272 0.38172899790700504
C 6.398534224166169 1.1522504188865046 0.08221662152630214
C 5.87606504896871 0.26159043415611605 1.0754463353223964
C 5.332729435030034 -0.8488828723526164 0.6227418911067698
C 4.734762540224414 -1.8685291826390926 0.07838655186724329
C 3.337912039821302 -1.692923607833647 -0.24253937928976954
C 2.4582571398716806 -1.3196440184180505 0.657198996601117
C 1.0289131872298474 -1.1408778064147487 0.3250155007151669
C 0.7756952082385057 0.24848206661500116 -0.25400421854284766
C -0.6684792805925771 0.37854016218061476 -0.5691818867362947
C -1.6379006478726383 0.14545581329051968 0.2868505792578052
C -2.923239123248012 0.36968741217610623 -0.35512055366871936
C -4.127377173652776 0.24719791975641847 0.15187704798497043
C -5.208285325017446 0.27300934246226766 0.8376861867249381
C -6.390616973275505 0.3063702089299044 1.3982836950861948
C -7.565612386121103 -0.2812192849955647 0.6890346358231629
C -2.597451082473044 0.7744242310265084 -1.730410953231365
C -1.2661819537229375 0.7721038315894648 -1.8316339190543616
H 7.407945413949609 2.9531561111282074 -0.37899279695103455
H 7.132600806532256 2.55399390362019 1.4166299151105712
H 5.849799432360036 0.3435769471587074 2.125554550958945
H 5.355203697569029 -2.716795752051369 -0.06708106361580772
H 3.024297066410287 -1.8791486362694083 -1.2609861377476854
H 0.6946407541532924 -1.8559540405501689 -0.47138494261954994
H 0.38159302812830165 -1.2468046281838103 1.2227171681667492
H 1.3463076864297139 0.4056018001331237 -1.174122753288016
H -1.5354364151892248 -0.17116072493088597 1.3334372875347238
H -6.5488363922419985 0.7509077223995645 2.3712182163387827
H -8.060266674688764 -1.0328556546425558 1.3624118372007326
H -8.316209971097315 0.5077953184863067 0.47992341527212407
H -7.259023472910045 -0.7318752767555115 -0.26964918367566376
H -3.325495735311218 1.0162974583781146 -2.476745858252024
H -0.7279596876083964 1.0274397813313625 -2.7265982995204006
