19

C 3.7185679821019706 0.7853458716598317 -0.09742992142695901
C 3.161947643707459 -0.11275027788568133 0.7038463212077298
C 2.1136479170505402 -1.0268274850274706 0.17163709214956654
C 1.0479170104646636 -0.22021224331837896 -0.40554619190613783
C 0.030630164828274464 0.05327110014467515 0.3606868914093268
C -1.0197040100696764 0.13791341481048594 1.165078523364913
C -1.9863107283385768 -0.9005831497148079 1.0844729168530056
C -3.1905305842958867 -0.6738746042121023 0.6137060311910536
C -3.5341185040521403 0.6946677863704632 0.1618026351732568
H 4.482716670782952 1.4611067852265451 0.26570271609780816
H 3.417311426870606 0.859291595339843 -1.1343646819789868
H 2.5219970367866935 -1.6821335802987023 -0.6511396926076334
H 1.8040736012326926 -1.6928257819971715 0.9751069409004429
H 0.9935067289010071 0.17415245854254002 -1.3769603559289039
H -0.9725125486160388 1.002972092791742 1.7694316151877494
H -1.7598815478821939 -1.90276636226147 1.4067115006126636
H -3.644031686073791 1.41121173486285 1.00194685644365
H -2.7145664937949436 1.014063082468182 -0.5280686420960008
H -4.470660079601643 0.6179775624986754 -0.42771507323070973
