37

C 3.0507234505503047 -3.0073570581874547 -0.6113748423203093
C 2.010735994264448 -2.6019906136327817 -1.2853704963608121
C 1.7825027370681277 -1.2123002527078426 -1.4749975305783818
C 1.9235407014123078 -0.4503371020440689 -0.4018748430711551
C 1.9896970874970048 0.19971723830323418 0.7360703317292492
C 0.7498874676944418 0.27748230200945456 1.4988486587778687
C 0.36172797828771386 -1.0738840273750678 1.9547327768427083
C -0.07336064350032395 -2.140428199449605 1.3597279120479135
C -0.9117217800615636 -2.15516873668047 0.39369090444864574
C -1.333607255485707 -3.4938850575279496 -0.07085765492626629
C -1.5080272748376933 -1.0286118236685977 -0.3119074543307373
C -2.0117912463302385 -1.2624261453809889 -1.5191454489613563
C -1.6027960657200229 0.35442067473728656 0.19703199008071798
C -0.3024772352595952 0.902467207537022 0.6445988099802904
C -0.04656572577179384 2.125975811489068 0.21949642043820247
C 1.202272932083892 2.87041384752293 0.5494912333824693
C -1.0423696852701392 2.8143644262592287 -0.6335131879861344
C -1.6128798266418165 3.9995024644899 0.09337694597272965
H 3.732567229176947 -2.3013218429845193 -0.20064783724943586
H 3.222078407775432 -4.052199326503682 -0.4689892516512909
H 1.5148373032051494 -0.6625119575423389 -2.329033667769331
H 2.9505847649460746 0.5820756182066992 0.9448566092363759
H 0.4634274920644797 -1.2022256892627206 3.0260545509071415
H -0.6483148237207208 -3.806440267754642 -0.8709467568244617
H -2.4057855460190414 -3.5192937708839582 -0.36420559505858885
H -1.2390334004430763 -4.260908246531821 0.7484650777574875
H -1.9715189564617004 -2.2601325000432153 -1.9465415991917103
H -2.453098261555286 -0.4472670690811032 -2.050885103180769
H -2.2711456834267594 0.36455986167693494 1.1039566039677544
H -2.104078091349202 1.0286621890875314 -0.5288535740729746
H 0.9805089519460988 3.962071808134969 0.723105044310115
H 1.6486624552515416 2.5191838980651484 1.504330725467542
H 1.904471043890698 2.849671949573203 -0.30022300303870325
H -0.5619916336810611 3.163090997167905 -1.5734182095500386
H -2.7198094418471572 3.93683418945407 0.038151241390691135
H -1.3299889166721055 4.955460614653679 -0.43095797569074773
H -1.3378645030595047 4.032734588874254 1.1660617209782742
