18

C 2.7391914991117057 -1.2782582757145475 -1.254201854597694
C 2.3194648867606116 -1.544785539596744 -0.041106502900688714
C 1.9803354062218217 -0.5573196906410337 0.9368741546051607
C 0.8671816441925032 0.08647593424234445 0.7292672276234047
C -0.2693479442195238 0.6689654556758164 0.4219532029955224
C -0.1331712463862396 1.8517944590524027 -0.41895602663205805
C -1.4264949001238674 0.05450662832024409 0.9524091115003999
C -2.3121231335325856 -0.4044301057032303 0.09910710392261106
C -3.136694458073889 -0.8352270591700273 -0.8338147756700286
H 2.8542986559179613 -0.26352588084116896 -1.588589398740467
H 2.9648921706299576 -2.111865551398564 -1.9047573962169322
H 2.476189258709178 -0.2511930180061062 1.8092714031994803
H -0.9688896821114861 2.556653750019277 -0.15232696406082774
H 0.8006691318749466 2.419689368366367 -0.2552531583643533
H -0.22965684032348244 1.668490000821745 -1.5045366054436786
H -1.7081349617573702 -0.10309635574471619 1.975764600085435
H -3.8577572244988936 -0.12932446134003153 -1.1364587283964496
H -2.959952262391416 -1.8275496583421675 -1.149045539917036
