22

C 3.7654509775687077 -0.28636517070596695 -0.5650348608755928
C 2.7414759636696737 0.5294970414903375 -0.5348262968454373
C 1.3803281586912257 0.03210867337746519 -0.23006201908145862
C 1.0853180448456334 -1.218755384780798 0.027182954643666307
C -0.39505338383415756 -1.2680751249628548 0.27641201454833403
C -1.0288664477960796 -2.376078585982694 0.5649278748141554
C -0.8315952587423849 0.1095153108685084 0.11705667482835301
C -2.1577943277071303 0.6537113324451751 0.24191674015380565
C -3.276665731895531 0.051444825598062946 0.5247850147832922
C 0.23020814252524102 0.8771217721601832 -0.18417800950327765
C 0.17972458109266043 2.3404002637881542 -0.42067295072144095
H 3.6081990768917946 -1.3264999280865204 -0.36545616931956876
H 4.744329950225604 0.05820676667428082 -0.7820206903382454
H 1.7519730224160097 -2.058607731922769 0.05913052632324293
H -0.4360348772269521 -3.2956881078541875 0.6222544844854356
H -2.0481864998774966 -2.491332776883457 0.7501382011335109
H -2.3035602777986175 1.7521758251359099 0.08191904386961127
H -3.4326608028090897 -0.9778594544174827 0.7223390543318134
H -4.230020887387775 0.6467517952315471 0.580419330460098
H -0.760007957160901 2.6802445002440547 -0.8769124356976935
H 0.4201905456969365 2.9054447225084727 0.5251797392329597
H 0.993247988612611 2.6626394360744614 -1.1344982212256156
