26

C -5.763752565823287 -0.6917921001407812 1.9235029614102193
C -5.98322046268895 -1.0061694266018497 0.6604556815959756
C -5.162329040764623 -0.4594157869175337 -0.4082213922898668
C -4.043176229621733 0.15147060370485932 -0.156955046695834
C -2.884467903291858 0.692642137899528 0.08074992584867675
C -1.6234720619489729 0.9569144354502546 0.35802654422570335
C -0.5576624750852958 0.536221337947359 -0.534244425256994
C 0.6103553517188368 1.1336010513523458 -0.489542146955331
C 1.6772468003726788 0.6857445477941764 -1.408556369437894
C 1.9966343270592584 -0.7250294192952389 -1.084360738140281
C 3.251362022389344 -1.0411971872836667 -0.8530574650229278
C 4.26610463869417 -0.04015464837894107 -0.9166417580555958
C 4.907067058995679 0.2253522895849672 0.19419079912977077
C 5.494874516449309 0.424455221721882 1.3536064480744396
H -6.362761107225237 -1.0882847599124008 2.7261540314658235
H -4.959185983927338 -0.01722268093100229 2.153066461933916
H -5.5097599825180446 -0.5753035963315408 -1.4228640651485018
H -1.3756934948642103 1.490966447760897 1.255881952471647
H -0.7645531756697104 -0.27444378745406567 -1.223127238107916
H 0.7939105396751909 1.9293586685803557 0.19557597917955558
H 1.3917583310507107 0.8344208164036979 -2.46791979315107
H 1.1823948170899083 -1.4425632518575957 -1.050445585045961
H 3.4485004145762197 -2.0860999549128993 -0.6182356859301025
H 4.589232742794108 0.5372056460669055 -1.7483029136900137
H 6.3422798845055945 -0.18341834933338305 1.5260377881814493
H 5.038313038058217 1.1654535180142067 1.9552260494112075
