17

C -3.544683043511213 0.5551081883886733 -0.26006649024628
C -3.1856894047922304 -0.3823804130595235 0.5612122767942398
C -1.887140155769303 -0.9763992407469871 0.587924383759828
C -0.9250809210904728 -0.6449908974692186 -0.20431732379143216
C 0.3774984562677036 -1.2749458335742327 -0.14164320457239832
C 1.5126551680656284 -0.6861445796055149 -0.3720656777415013
C 2.372235366009278 0.1947294207516656 -0.8138216320804519
C 2.9389655660401015 1.0320273985727373 0.19069243004046046
H -4.564957662915701 0.9455715562792967 -0.20079824915857383
H -2.8786474010271634 0.9600334086140034 -0.9932609402937894
H -1.7279807400070493 -1.7654894798791807 1.3450919914749853
H -1.0995849008865046 0.14164907486208358 -0.9518628840230986
H 0.4728885982294347 -2.2691950605934292 0.10143963607873034
H 2.6359767153701177 0.29348564618282924 -1.8408447083720283
H 3.0884847097270414 2.1100349843631094 -0.11604825260416714
H 3.9876706836597315 0.6830340220621892 0.4272770825914283
H 2.4273889666304047 1.083871804851477 1.1670918378362791
