12

C -1.9873176411306168 0.9793105672423527 0.030677791138621093
C -1.2983636873924298 0.21563552423178609 -0.8025920100601008
C -0.396106129881899 -0.8116626577778838 -0.2664763807949268
C 0.08258262864377007 -0.7388196787955736 1.1090805091826126
C 1.0389023542966749 -0.4470048646744815 -0.04660960643684195
C 2.2474323464120283 -0.1170759985082212 -0.4704312790057034
H -1.8841330609277012 0.8449970396121643 1.0992167427566848
H -2.640495676830355 1.723407408530981 -0.38083825256206
H -0.5174834211835821 -1.81664759786527 -0.7302922134610522
H -0.07974300674557395 0.14486533752633918 1.7439140203872534
H 3.024168817531385 0.05787336860056175 0.24718707317653033
H 2.410556477208903 -0.03487844812274281 -1.532836394320991
