32

C 7.317525939055937 -0.28291286463974674 1.4622521959197239
C 6.496101981965453 -0.888708136847752 2.282328351918927
C 5.228036823473814 -0.37777732023783406 2.6957583280802697
C 4.493432798477399 0.15404866884787827 1.7414602416927067
C 3.7790106841730484 0.5689084416669967 0.7102315350813639
C 2.980526363381305 -0.4197783640771158 0.062326716197537255
C 1.6546246952601824 -0.22642751240302528 -0.18086219109468327
C 0.9206785391516298 -1.267381708289147 -0.8363828215952994
C -0.2874059602995664 -1.417066275540383 -1.205824521482173
C -1.4051202454136575 -0.5197648032778414 -1.0776388688654805
C -2.6717250922158073 -0.8058081630379454 -1.5235657937995801
C -3.4591352350498727 0.3232416888960291 -1.2077810236722746
C -4.71827355453608 0.42544937725473064 -1.4731101976931729
C -6.017183347738286 0.49262823856575244 -1.6327972160757716
C -6.806529169590707 -0.00015999320245520574 -0.5526617242277894
C -6.788269339228066 0.4983389698541844 0.6737721608295554
C -2.6924442118135876 1.3250919895831426 -0.5618212791384903
C -1.4412776291289704 0.8019448894063614 -0.4869250694644566
H 7.055947339506959 0.6782654170398059 1.0430120060742591
H 8.26092711449729 -0.7445355342658055 1.2027217545696525
H 4.769325373239066 -0.3518152496541593 3.6428068825469118
H 3.90462035793691 1.5951643338059496 0.5076303990659917
H 3.400432980579395 -1.3404874719549305 -0.2506448542450262
H 1.3107575032791265 0.722237348472178 0.16377579146170415
H 1.594143068971438 -2.169811874380174 -1.077779451435041
H -0.5085612672180035 -2.4225393386312266 -1.7172528076435005
H -2.934869946109198 -1.7215654272444236 -2.0047765778057185
H -6.289675254942741 0.9110993572067855 -2.5584029497305356
H -6.151264321045859 1.336883726469109 0.9347418267911308
H -7.419544324152281 0.06131410972820085 1.4273057365829362
H -2.9198884740398716 2.3013814738717397 -0.1755870309269506
H -0.6549241904265982 1.3845201055195877 -0.026309547917003868
