15

C -3.489992106497577 0.38410196492734744 0.02502626940979313
C -2.6247954318241815 -0.12041323329254335 -0.8479498248960422
C -1.2202242129994136 -0.4382491988078806 -0.4725160380414021
C -0.43930980750717147 0.8249879622206544 -0.448033547302578
C 0.8771275952675377 0.7051729950449518 -0.48512466064806087
C 2.1128725987350387 0.29006184735238305 -0.4955760185095692
C 2.7657372958439836 0.02781665232533091 0.7995551640924106
H -4.511665298519409 0.6148577714085057 -0.24960779746000666
H -3.1641340266824094 0.5666569774297938 1.0287988694956605
H -0.8053431710423576 -1.050469277657702 -1.324903147494756
H -1.1581933831914295 -1.0037021685270662 0.4657164660854951
H 2.6713987900633738 0.1273254388798507 -1.3931485600514804
H 2.2589567928608867 0.5433155973453424 1.641619254063612
H 3.7967453794567327 0.48459268475742856 0.7452933273189869
H 2.930818986036397 -1.0413448230982196 1.0108502439379343
