20

C 4.492887705821576 0.45284920650450666 0.16030045275204416
C 3.957951374557665 0.3617088538098935 -1.0145226227811412
C 2.715868407074521 0.8788982993672645 -1.4681221645488878
C 1.635303111018375 0.24146206852596308 -1.1380707712770006
C 0.5971654488431634 -0.419293503886234 -0.6461270373646079
C 0.10891691868259809 0.024505539049344764 0.6406975159485243
C -0.6742355287216499 -0.9584306230162922 1.3973313405403867
C -1.9778240805761083 -1.0676007109556311 1.1853162498603047
C -3.108279549575963 -1.1233076582804644 0.5243676779018293
C -4.098854246241218 -0.0408832999777462 0.6993020155983709
H 5.447982813979531 0.007338151157726106 0.359911364657099
H 3.9874975496396257 0.9757367842504322 0.9506515672575444
H 2.5524695955590646 1.7480196002622528 -2.0595950766496136
H 0.2774652161579875 -1.1934921027052852 -1.2908406851990757
H 0.9923973306532201 0.29842105486506 1.2884155256067862
H -0.45777961519078314 0.9916012667788432 0.542147815864253
H -3.332967912580806 -1.930655090736331 -0.14361760455899264
H -4.396332644906879 0.3481891876499091 -0.3156576537332883
H -3.7127858323064262 0.8151350274517997 1.2675585651769523
H -5.006846061887678 -0.41020205011512334 1.231734530533765
