23

C -1.8708830785220139 2.1304780873093074 -1.1628199679220848
C -0.9341613058366848 1.4546075766197208 -0.5469430576814609
C -0.9394629671245579 0.004326860105265938 -0.41022507609831127
C -2.027996137907941 -0.7303701170209327 -0.9793185262493213
C -2.880516620242236 -1.1899129158456687 -0.11917308150880881
C -3.593674608567962 -1.977979544413277 0.6313784601545788
C 0.06144156564769106 -0.5734545596145072 0.2338709305045072
C 1.182294018770695 0.20633651468075995 0.8175803001210178
C 2.5111955704455067 -0.19331548735161183 0.22502750615626135
C 3.6314249479623184 0.6159095140158736 0.8372189093874202
H -1.7608063402564342 3.2076000620313323 -1.2019613192254621
H -2.7406236266778548 1.7157251496083932 -1.6341573816373482
H -2.0737668580711697 -0.8539332000782264 -2.0262219831935666
H -4.478144197172394 -1.54607324871782 0.9483399467871448
H -3.338143391108817 -2.9650956463875184 0.9156561257821906
H 0.10815390190908798 -1.6608623435553473 0.36617130382921853
H 0.9852237330868537 1.273829218618121 0.5905260794350712
H 1.148192662441419 0.07186221369240453 1.8978835075133205
H 2.4987564147462336 -0.13680058864073938 -0.864294240802174
H 2.6896015269697267 -1.2627857340336763 0.4910901155294321
H 4.022278874548461 0.13311163233071435 1.7725963942373322
H 3.311629643867896 1.657333487578964 1.0743294073687792
H 4.487986271092186 0.619463069068567 0.12123695498560824
