51

C -8.135540712053814 -0.38965294545118656 -2.815153308499353
C -7.90656006757628 0.6460441982955428 -2.0257633338490657
C -7.391884253416629 0.48446712025266064 -0.6284503209835802
C -6.360312703180201 1.4617708920524943 -0.30252756585895907
C -5.139939981659697 1.187879946015331 0.040209153453504703
C -4.63218629768728 -0.15827125528379948 0.14512532057996147
C -3.41526961947985 -0.47975939039453425 0.486653980270991
C -2.3962984285918134 0.4859327617719071 0.8108921258795342
C -1.1599114480218042 0.14008484201677518 1.1583421463696915
C -0.7771020928317136 -1.2631401963665039 1.2274731818561393
C 0.4681690345859526 -1.6400061300585411 0.908638646565716
C 0.8713339462529787 -3.0655456279751188 0.9746184078136235
C 1.3976211851981808 -0.556665165731004 0.49375673708691586
C 1.21608535597266 0.5879985979935164 1.3983294598106062
C 2.1580534776380977 1.0813528498102136 2.1194363639763925
C 3.517400273107689 0.6702143200573397 2.2084675831780256
C 4.309485317139579 1.3595849864099976 3.101769744075092
C 4.164568673658793 -0.41362590160413887 1.4653344828542485
C 4.514985344493697 0.026394579970091037 0.07395102161202602
C 4.156083821899875 -0.4936128623613792 -1.0734495172843432
C 4.744090768499224 0.27897206426764865 -2.188492848923075
C 5.7198857016788525 -0.5747846396450206 -2.9709676425224596
C 5.521080406166734 1.3560193989449776 -1.5321555940942808
C 5.370978765880238 1.1853684107614555 -0.24672383229282474
C -0.1703425033903392 1.2107699494136057 1.472265953163481
H -7.9646931840686195 -1.3952279096154774 -2.4954698211767585
H -8.506179685285593 -0.21917008776549213 -3.8132852703374085
H -8.285475098666378 0.7453260215392811 0.02486644617774257
H -7.178677255153011 -0.5609547946090473 -0.4199315661947767
H -6.660626810391046 2.5240934870871103 -0.3567999802920064
H -4.478528353479481 2.049698072826955 0.2568616555869071
H -5.341367601733254 -0.9748582083068771 -0.08790108375817622
H -3.137742060633669 -1.528818704288833 0.5320707413805397
H -2.667051970640121 1.5456053594322767 0.7651759656255759
H -1.479084075399096 -2.0235019461703017 1.5364053692012833
H 0.32865785848230816 -3.5391776832776767 1.8204726791543597
H 0.5913273465012785 -3.577298425139585 0.03938867184268742
H 1.9447486568316397 -3.194494834220909 1.1765727541931457
H 1.815649596611749 1.9625924149210188 2.755507083797162
H 5.330510187676575 1.0733384801665242 3.189085389150148
H 3.850040701958823 2.136320110196218 3.649394537733101
H 5.100250219009046 -0.7633594028034433 1.9815226489270383
H 3.4904405942707815 -1.2889535396844958 1.4456112561007928
H 3.5259127769940104 -1.3653815610065985 -1.2423324051057782
H 6.129127897607593 -1.3202716460072852 -2.2494122015395255
H 5.132182446103106 -1.0785072749895255 -3.77773097697098
H 6.490664373066676 0.0965165653106256 -3.3685493859124533
H 6.087936634576583 2.1146178218414304 -2.078941688643422
H 5.818166916149236 1.8157775121126185 0.5270191864193211
H -0.20010423253449575 2.048056936105818 0.7736558065288148
H -0.38055984213676974 1.5902424331824105 2.485152359261309
