28

C 3.971302586351834 1.6700734610342702 -0.7246536214969493
C 3.089347239907408 0.7892024071431161 -1.1415368481389683
C 3.033186604282605 -0.5279973532905528 -0.4601888159586988
C 1.6256026374177872 -0.9333525071036668 -0.11231623912324033
C 1.6708481897388054 -2.262862280151832 0.5651913525551432
C 0.9998574499073989 0.1486306214888601 0.727768766275275
C -0.4175108932783304 -0.1760320253261557 1.1231864796203772
C -1.303841134801024 -0.3577409702336359 -0.04870737434853241
C -2.5260288875400385 0.12936827232324302 -0.11172081803242345
C -3.508577304064012 0.03719770194696485 -1.1808046240519885
C -4.607955394408675 0.6840071346799873 -0.7982611162988629
C -4.4094169001619115 1.2336067973623799 0.535543527744011
C -3.1841881222550787 0.9039772330950582 0.9327920050756627
H 4.0066288684430456 2.6292283135257946 -1.2265453198079834
H 4.669789140760628 1.5114325246692881 0.0861401113796247
H 3.7123115537648994 -0.5674665041904206 0.41817203567448247
H 3.4189688357753862 -1.3225455177398857 -1.1634487594729652
H 1.9153036663651029 -2.1672207041343134 1.6427153577487246
H 0.7888460811809861 -2.8926139553236268 0.3778297417861809
H 2.541612270344939 -2.8262940871934576 0.11705081243146011
H 0.995642059523417 1.0798027475302168 0.16073239711820134
H 1.5937153363035914 0.25283682069571906 1.6548641814275835
H -0.46234139281460823 -1.048532362269589 1.8195758444122596
H -0.798427532454861 0.6927963132279801 1.6986824022065259
H -3.3933828198210603 -0.4598714797384514 -2.124655013671915
H -5.506725916132299 0.7925815019462609 -1.3700960324288467
H -5.146979342819952 1.801488884803953 1.0741343510153358
H -2.767586879516096 1.186299011222578 1.8981572012130798
