32

C -2.775209115872591 -2.1439876835519867 -2.6192894044274833
C -1.9722010707483046 -1.396255326816018 -1.9015437105942754
C -1.1165231548096028 -1.8317168811698104 -0.8569767575880388
C -0.4018867269292268 -0.8508889033195995 -0.32706814412049356
C 0.22283430188815373 0.22960856715690786 0.16114336770293783
C 1.3126041298013824 0.5488870153446476 -0.790228056947824
C 1.416474311992264 1.3682860763001832 -1.6415318510464245
C 0.7053636386464757 2.4600627311225454 -2.2391372136728505
C 1.2855521075854306 3.1480324503192327 -3.246083281284701
C -0.25654008015325147 0.7188303982010293 1.3573407084355458
C -0.670034105514004 2.0293859200694335 1.7185055413425372
C 0.48448878902076653 1.6816453845362695 2.2130665019509395
C 1.6993132634858448 1.922971321278696 3.005307677779641
C 2.626260351661908 0.9403038572743861 3.054831853133695
C -0.8648785281937336 -3.088232078852234 -0.285003613164992
C -1.4883370531770226 -3.3767946168111984 0.843707004305704
C -2.1296110620975606 -3.546747904112755 1.97968242763532
H -3.3837468575307446 -1.7534820753185492 -3.385051044294017
H -2.81265371703289 -3.225239303061325 -2.4239605419333783
H 2.182712509669853 -0.18879473993401874 -0.5225616274024687
H 2.467572322710315 1.291086870664075 -2.2154328186082894
H -0.3059765178609897 2.7711595573446126 -1.9282470024381306
H 2.2916277091020265 2.8761306936821818 -3.6020783542959514
H 0.7903371478903608 3.9524719833578468 -3.708841687051242
H -0.6955766511078633 -0.10651672526140543 2.046664827933046
H -1.4683117971627004 2.7806086917248805 1.591188567845178
H 1.859560351552275 2.8210176259785587 3.532559826382917
H 3.5249838369331234 1.019485146327847 3.605127127657612
H 2.41589159482304 0.05394850095885274 2.4689449018951777
H -0.2331186040363227 -3.899669115117688 -0.6081416055997958
H -1.5863069080801435 -3.303468374949489 2.8550330147185177
H -3.124664416463992 -3.9021290632803503 1.868073365916481
