27

C -1.2692376696115633 3.0439758198148 0.7862769267207509
C -0.6117038945918706 2.225733005584172 -0.023239683510183
C -0.3397462683747279 0.8051501242099032 0.3144045206075798
C -1.5425526477259444 -0.037303228492556295 -0.05476101603604367
C -2.797773286147827 0.27692686658391213 -0.12423525262008622
C -0.9585859771197148 -1.3631442672388905 -0.3345754934823747
C -1.7400766951022228 -2.6458418019510135 -0.2576126393316637
C 0.2900428466399032 -1.2336447949536957 -0.6444047747934308
C 1.5585881309295953 -1.9296684535146003 -1.0380315993784763
C 2.5507284736051083 -1.020565465654971 -0.39978394574505216
C 2.0431369597467297 0.17392386995767073 -0.1672357295575336
C 2.8658706968292385 1.260586533285093 0.47514024180864467
C 0.6612835121739529 0.21563683493366664 -0.6244702158713564
H -1.4514509429607254 4.0761147889367475 0.5101200387225344
H -1.6446961757502252 2.7060237575692834 1.7488202781744644
H -0.0543736171140091 0.6617665717757385 1.3551756470843803
H -3.5274434894215143 -0.45830384457699735 -0.4074987457235237
H -3.166147230456692 1.2651377949465712 0.09245310879892314
H -2.7528575719482493 -2.486494173037497 -0.7120382910600763
H -1.8629154278019089 -2.9665837443403036 0.7882526714803998
H -1.2591951895207287 -3.4484975391609947 -0.8190975345387956
H 1.638494973645796 -2.93220575839761 -0.5595123254280121
H 3.577718441500689 -1.3687245261017393 -0.17342085259957699
H 2.8723597626714996 1.114869840212815 1.5704452649338492
H 2.445431084665189 2.258459703281462 0.2223428476958554
H 3.9299696793632926 1.1998737875015428 0.13730334840003958
H 0.5451315218773023 0.6067982988265521 -1.6608167947514159
