30

C 4.009057303670971 1.7141472114590388 4.886934065886609
C 3.530304764659242 1.3971976343215795 3.707011809956427
C 3.4325552535171435 0.00950671450644092 3.2942166791890166
C 2.605441126365099 -0.3940507234346197 2.366292001125996
C 1.5414476770344743 -0.8465649212708496 1.7696095439642963
C 0.5133990595659174 -1.238157154257127 1.076966471495774
C 0.515704590622168 -1.1319871205434366 -0.37403990359600797
C 1.6808909093342579 -1.6735793874004885 -1.114319265013784
C -0.5037340845224316 -0.5643502714229369 -0.9924895502526839
C -0.5073676694882084 -0.45534320474366596 -2.44107439682193
C -1.4699767394906993 0.09039663743710481 -3.156541815771267
C -2.703852167189825 0.6909202163393765 -2.735109912300287
C -2.670496092643854 1.8515532971914497 -1.8645070329700033
C -3.478313063718784 1.653470124441091 -0.8488768924192586
C -4.0898039533398265 0.34788482537744236 -0.9911012084116566
C -3.645804038421081 -0.23160160946529385 -2.092034449556159
H 4.330266799882828 0.9323435800436753 5.549362600075379
H 4.085891087905253 2.738591548701158 5.2029340265196575
H 4.0742418861556695 -0.7153467895058524 3.779319462934647
H -0.35073961220360395 -1.6464244436105968 1.586007277596209
H 2.4618815414227257 -2.0292686849510058 -0.426341972975892
H 1.3007229007523704 -2.4674602598347284 -1.7886925914418803
H 2.0651225398123487 -0.8575187852120153 -1.7866316965647446
H -1.3250466183801801 -0.1851557843403958 -0.4342564149379949
H 0.3869095151396898 -0.876022247938749 -2.94464288763185
H -1.2936737519782902 0.08150675081180364 -4.256562053524641
H -2.0828475090565606 2.768290920843746 -1.9915474793510077
H -3.67508406001393 2.35643578534318 -0.009320285002210727
H -4.817780159421482 -0.10799988267893419 -0.29446663018882197
H -3.919317435979985 -1.2114139762211362 -2.4652666837240376
