20

C -4.096536147887836 0.7679796699542628 -0.35620685391034307
C -2.912195114763768 0.2755501892408995 -0.6402210057341959
C -1.8929730347234712 -0.12474449503129827 0.3330959727962079
C -0.6764984820455077 -0.6370103612201777 -0.3970002672061018
C 0.39038632408941776 -1.0570868892026828 0.569205737635494
C 1.5806599552844542 -0.48220319557907737 0.5542203679760794
C 1.8434229447932056 0.5572854925147316 -0.40486614204842397
C 3.01671205752968 0.5202884040774094 -0.9910947699245798
C 4.204210294002149 0.41848338805802887 -1.519285640215283
H -4.753947661419498 1.022387632647216 -1.180518097203786
H -4.475485504840825 0.9428986830825652 0.6347064341942421
H -2.2562173513018564 -0.9228369832202931 1.0196217057978674
H -1.6501590325929694 0.7508103800497116 0.9777235661493012
H -0.3004158801156044 0.07384646664377621 -1.1323185303741987
H -0.9999504753863577 -1.567734211045934 -0.933549048097738
H 0.18513525750713716 -1.8359918390322727 1.283635821682904
H 2.3386926696430606 -0.8087676941575134 1.270159735770644
H 1.2289045739061704 1.3578879838523896 -0.7150407146363054
H 4.246597118390417 -0.17800779902774985 -2.4118044572313337
H 4.979657489932454 0.9269651773960864 -1.0149540073332783
