28

C 2.9904385415900814 -0.2689496024427161 1.8662095579377438
C 2.1926486106955307 -0.6459552904542865 0.8755672080820762
C 1.4695500871378822 0.4167483804496452 0.1281849344118034
C 0.2869101066627272 -0.14737013571805355 -0.6175359296944135
C 0.6919590687207832 -1.1992817263832873 -1.6232410427706092
C -0.45457077724486306 0.911322544136174 -1.2843325819015619
C -0.07248157032944308 2.0628203694733296 -1.7409366367621515
C 0.433373272611238 3.263023300587946 -1.8449812456556125
C -1.8113637115096741 0.45716375314229574 -1.372007599013311
C -1.922088706603488 -0.3511317456683689 -0.08705361734939762
C -0.7385460960866134 -0.6915660735569797 0.3385137855078332
C -0.8928101637233714 -1.4761764339347863 1.5912079210769963
C -2.353772874448992 -1.5303979157648855 1.8141550186309374
C -2.9305426966572563 -0.8713561819183353 0.8286401600563525
H 3.136381519056113 0.7554049629617153 2.149823326042757
H 3.526731987528743 -1.0358847011111512 2.422794488647828
H 2.112355755740821 0.9205138667839634 -0.6234190758191966
H 1.0932916625362998 1.2015864022518628 0.7999628098609741
H 1.3794943835971327 -1.9191578705284915 -1.1602096568513316
H 1.1476314318342336 -0.6904683485483651 -2.480281069104194
H -0.2382657641586427 -1.6795788355471408 -1.9849265791822133
H 0.8881334783113025 3.4217361221982245 -2.7746198196627616
H 0.40954962367206654 4.009610237355994 -1.106166987695593
H -2.5994617005380842 1.224164323579011 -1.4109386168193414
H -0.44142689263349927 -2.484707449305224 1.5052506476316811
H -0.44106075966829955 -0.8941485285939783 2.4371298545082674
H -2.842575838494992 -2.023891032027491 2.6386919303631204
H -4.019481977597796 -0.7340723914165189 0.7145188155233504
