20

C 2.7704481158229997 -0.1816094201439289 0.9059976704645906
C 2.506370891477039 -0.03342559694347168 -0.37640259158780776
C 1.3487668458597846 0.7175055026867944 -0.9079244555003053
C 0.09373744221600185 -0.05531817614667609 -0.5917670147995324
C -0.9372240972351263 0.3286659863795838 0.12255598137787117
C -1.1101176193462705 1.6366660593721498 0.7972503427183065
C -1.9301605887925155 -0.7631576914286025 0.15836028365059884
C -1.3330554864126738 -1.8469362595244336 -0.6397014217538068
C -0.1557344341299268 -1.4165330541470018 -1.067738691834457
H 3.636072050598304 -0.7451979119394863 1.199463381310677
H 2.1335514087520235 0.252273909752988 1.6541403507447734
H 1.2703459752692436 1.7461098288919157 -0.549517493485443
H 1.4304394308008046 0.661957000538496 -2.0325362744786553
H -2.161072645422919 1.783215174485219 1.126905006323935
H -0.4519400543127573 1.7499623159318032 1.687049340151221
H -0.9070639621266167 2.450106773876682 0.04012477330259275
H -2.9271367237970427 -0.4367502801054122 -0.2331367362735781
H -2.0483726994736937 -1.0471448876280285 1.2375190881851323
H -1.759509389615727 -2.818987027808347 -0.8488180705472144
H 0.5316555398691032 -1.981402246100271 -1.6818234679688626
