48

C 2.398727316669107 4.760762217943294 0.9761834506404251
C 2.886130081746461 3.8401074360916794 1.768306159988425
C 2.2932220682189235 2.532492151506388 2.057252561427064
C 2.8143606492641484 1.4598597989537436 1.1387663365112828
C 3.72723074657577 1.6763894077426549 0.1564844547023677
C 3.9707919838552588 0.39834974565463627 -0.5235553570845116
C 4.717628440839942 -0.0542492432412453 -1.6182179846855642
C 4.622986615725966 -1.3766745843059793 -2.0183000002083653
C 3.782144176797204 -2.2798195217722497 -1.3387066141445514
C 3.0403414311760577 -1.875711763380568 -0.2680226855801822
C 3.207158890333837 -0.5274254464923555 0.0583473296760786
C 2.5143890691242214 0.06145925714539214 1.2047430570266247
C 1.164532046912763 -0.48468247346442733 1.1926605802154684
C 0.9268749033384203 -1.7743350341957915 0.8691714848287984
C 2.0913216799394525 -2.639172047641177 0.5262690832013889
C 1.6033731738754595 -3.90599628756317 0.1400326772428738
C 0.24771219230916763 -3.8991873532734465 0.24589588301514195
C -0.19458895016244115 -2.623405541908282 0.6929109335953406
C -1.4150353198954735 -2.2709623743341965 0.9074717856159552
C -2.690813397244572 -1.9094406934324872 0.9876691676701941
C -3.258227784948872 -1.39364841479879 -0.1734352443789588
C -3.4019835935995495 -2.234870360909999 -1.3206084536157838
C -3.6676743311829703 -0.179397572303404 -0.26288387612049074
C -4.155018233702928 1.0084165826585263 -0.24644771389599587
C -3.315400429794745 2.0949632333021726 -0.6177524077698651
C -5.491239615541503 1.2427386557370308 0.13043540243516122
C -5.972654811316379 2.4475044055306605 0.1432099970844131
H 2.9745803829551316 5.685958415521861 0.8734631214382003
H 1.4605519522954158 4.600524697399201 0.44849085897365376
H 2.511727899765589 2.2776511222802163 3.1205556197272912
H 1.2021862839253454 2.575222843304787 1.9534576310817238
H 4.1835135602307 2.602639364473862 -0.07886500090369347
H 5.346848331048084 0.6587233596012391 -2.1135856731897023
H 5.186087787796262 -1.7466894025547743 -2.8539906508968595
H 3.7210395205638958 -3.306835825417846 -1.6668365272551329
H 0.32086191770817374 0.11440497615828368 1.4383310859546177
H 2.182355199869003 -4.786200559883359 -0.19852548956886318
H -0.35713986617807725 -4.764763112132583 0.01180332797537194
H -3.0545153701779317 -2.0910911373402215 1.9700630077263
H -4.04831720028806 -3.1365861563371973 -1.082887343605036
H -3.859994916288318 -1.7493350071076286 -2.2135403702636336
H -2.456368344129076 -2.6947670950632614 -1.6875744441590326
H -3.7447914307352006 2.668255111235983 -1.476257680903059
H -3.1222343618813353 2.8480596199750488 0.19221834041160848
H -2.29860224781955 1.7511567757650768 -0.9685438052320025
H -6.1959136257540655 0.44357854829638205 0.4305025298361052
H -6.994134377602382 2.626116290842623 0.4313707334312945
H -5.4040300946151305 3.329912991732389 -0.1250064292647204
