24

C 3.472823189262189 1.3951714477389348 0.6740925195129199
C 2.8634883101661264 0.7562265079761554 -0.343178766061653
C 1.3392065731626333 0.6168674775414332 -0.3009655070057295
C 0.956801105840011 -0.64885556430063 0.35049138856994205
C 1.5514736718180193 -1.8210598056407135 -0.45615101673750713
C -0.4118365098114489 -0.8907074442092803 0.7355011279845094
C -1.5222139783837516 -0.26790149221111564 0.47240063899509105
C -2.8892564245103003 -0.6179237163512635 0.9346143616097651
C -3.747036584368996 0.2515150633928098 0.44810694493007747
C -3.0487221936586097 1.2336085191896464 -0.36084751632425244
C -1.7354598053223784 0.9140362825923504 -0.33738001003054713
H 2.878989324271473 1.7878593310908983 1.483090490582235
H 4.541767205653599 1.494558016819231 0.6474273551520335
H 0.993893849173931 1.5177216525182258 0.20407518986451972
H 1.0251109738442137 0.6414754452389226 -1.3624641729729698
H 1.589701366634602 -0.6913400047318451 1.3156173191559084
H 2.6509179324227463 -1.6665552067440526 -0.4183641609083274
H 1.145458898002461 -1.8407904124590646 -1.471420188319472
H 1.3618588458804677 -2.7761854723491637 0.07885414814870273
H -0.5751135244460085 -1.7987069052357143 1.4003709986785775
H -3.117806906117205 -1.4578082557712573 1.569078108291897
H -4.810073972471672 0.26453380164242896 0.6042230521698272
H -3.4768652130603614 2.077627251043195 -0.8960178487421075
H -1.0371061339818202 1.5266334832200052 -0.8864520671497625
