18

C -2.204607137357728 1.2910754747553232 1.223482580216178
C -1.1386340180582517 0.5985197330692498 0.9045187395969
C -1.0415063869518346 -0.2017361243463771 -0.3024089783906538
C -2.219529363081275 -0.2237416972733687 -1.2079778715552405
C 0.06531414500655594 -0.8624607718496732 -0.5403479424688314
C 1.1780649517282573 -0.770219063167295 0.4292244830797977
C 2.5092322864216983 -0.7303165359023758 -0.21136765800525165
C 3.343110744286461 0.27993350906855574 -0.057567648195250995
H -3.054572364934069 1.2680237744949916 0.5586180193969479
H -2.2035161389572075 1.8569279283665316 2.1284480032515325
H -3.005382926930607 -0.8620538468771756 -0.7297287615544998
H -2.6506367427852977 0.775347997227597 -1.381842741655933
H -1.9737775383671707 -0.7172019052223322 -2.164518339145541
H 1.1122819004044646 -1.650546918677813 1.0928501383805964
H 1.0732114956877166 0.12473853516002914 1.0942316087955866
H 2.7932965558384755 -1.573054748380418 -0.8276597142647363
H 3.1157171867029665 1.147392640784214 0.5444182408017986
H 4.301933351346889 0.24937201877031906 -0.5523721582834115
