20

C -3.901280042698226 0.3617786408582619 -0.388722908863954
C -3.0610152123199326 -0.11532444863230779 -1.2915231062251773
C -1.6779200541518162 -0.3568616209768991 -0.9542315722176797
C -1.2420589310367447 -0.10457807683974189 0.2532195277294918
C 0.12205877506926718 -0.2962100950005028 0.7420937713311041
C 0.6170127251277621 -1.7151176597841122 0.6392180641718467
C 1.078570510706444 0.6182999511485826 0.008167090553879592
C 2.4742357171736917 0.43628722579321494 0.4939511257539379
C 3.355076038049657 1.390682288487922 0.22476206969696147
H -3.6230185337354497 0.5945062688903268 0.6223992371648355
H -4.922984378901219 0.5204569683212186 -0.7040655679636807
H -1.0089979360096153 -0.7425362909253801 -1.6926213628010354
H 0.1502700654272237 -0.016180384074828004 1.8158223513127332
H -0.02148738499987154 -2.4106555711872355 1.2063498791998521
H 1.6178850226737636 -1.7422745491707619 1.1255286478034001
H 0.7390912781146257 -2.0652440664758047 -0.3918949270335935
H 1.073984978641998 0.42385169272071177 -1.0841846566583422
H 0.719779121895523 1.6598192243845424 0.1379779795096375
H 4.3701268892579055 1.2606115654611174 0.5768319111805755
H 3.1406713517150577 2.298688937001685 -0.3237538243762565
