12

C -3.1830191076457464 -0.16863025439071283 -0.7374581034200438
C -2.4293219623726343 0.6288504295788854 0.007747574981541882
C -1.3211567762839993 0.06889161881121529 0.73411608363965
C -0.14199978521293352 0.1050464051990905 0.16969809620054646
C 1.0943040495989134 0.19411967087246368 -0.1885211920831374
C 2.385560227639488 0.2639806409199261 -0.33246193654458184
C 3.690051016299899 0.1385917121039225 -0.1457152732865362
H -4.029511814802525 0.20653387239975904 -1.3035135086774658
H -2.9826005194291194 -1.2288798331485287 -0.8105215935775476
H -1.5025485383823776 -0.3568824197080965 1.7101351752757936
H 4.233255728849581 0.7762513036245957 0.5390133788142546
H 4.186987481741528 -0.6278731462625218 -0.7069008335252205
