19

C 3.708588125479203 1.0339431597921016 0.3760014148409269
C 2.772322115831856 0.0954050782740628 0.35755301684358465
C 1.6145330756950842 0.17986848176801237 -0.609404087053057
C 0.9906789235665296 -1.1459773768503065 -0.6012977144852693
C -0.24264708190131867 -1.3540271545812141 -0.2549131793934044
C -1.1300559215370387 -0.2979717838447031 0.1598774965391708
C -2.4053354784833236 -0.5426730421350209 0.5131487300874013
C -3.285550066208674 0.5582771039109089 0.9319320083955649
H 3.6277132706914164 1.858502615308999 -0.31233414321384745
H 4.51120914501595 0.9188955610966908 1.0891447397227096
H 0.9799258763069333 1.0355845128445058 -0.38827796723669833
H 2.0600413928685546 0.39378598010407645 -1.6329978189748486
H 1.5807309979319104 -2.0336721808548113 -0.9025271983548725
H -0.679239872887359 -2.379092505899796 -0.2629272651554079
H -0.7821168710946033 0.7094119905287362 0.19459939650645702
H -2.733925462293987 -1.5587539463098032 0.4728810107929185
H -4.087173165310906 0.15552739204049046 1.6103160859508092
H -3.773799328445404 1.060738037556496 0.057831324356087524
H -2.72589967522457 1.3122280772505766 1.5494429479645084
