15

C 2.4820394371848864 0.43886304287869987 -0.1828950389690783
C 1.7054544954280066 -0.30321553455268924 0.5458033613884499
C 0.43991113873497967 -0.9251616360983549 0.20169490673090917
C -0.6774754163794505 0.053566991774830916 0.10565239064502326
C -0.5109976725504026 1.3404568897808478 0.3148151412796429
C -2.01112072860942 -0.5392132214611617 -0.24846635430567884
H 2.2737388653317008 0.7073684836407311 -1.2066013649274194
H 3.3944605851729737 0.8137593521220386 0.25686229699279955
H 0.4358728655415108 -1.4960968467007252 -0.7457538884068333
H 0.16963202349613493 -1.638386847213906 1.0365054786387817
H 0.48750305288647966 1.6801790240016403 0.5657847409083856
H -1.2824902756981778 2.083610973393723 0.2576800435055067
H -2.225056149756623 -1.2663888981910882 0.589955615625253
H -2.793233989184435 0.2224183468104765 -0.34476232909028326
H -1.8882382315981816 -1.1717601201850694 -1.1462750000154651
