16

C 3.5118695144003915 0.668732674111678 0.3639597818748371
C 2.590416478020011 -0.2046413581667874 0.6375987684182308
C 1.9586899567027996 -1.1025564251644087 -0.2744524648990214
C 0.7118615805656126 -1.4303919329718624 0.005527341912150056
C -0.5446837480006789 -1.6325408317840913 0.3281651330014124
C -1.4741062207568167 -0.7004222078262926 -0.21336798967435355
C -1.9907720116106522 0.3352948892016016 0.39943099510615343
C -2.9549606219319196 1.2105242682913784 -0.3243564248409974
H 3.9022717929595068 1.2879531681125638 1.1640295473765776
H 3.9032055122330207 0.8017774260389324 -0.6266206778959521
H 2.317681781213164 -1.559903883785659 -1.1519579239001634
H -0.6888620451141232 -2.469091372772109 0.9533337162836781
H -1.7018866421390622 0.5246765431550787 1.413697143266429
H -3.7356556527498386 0.5641775690594919 -0.8107689361735375
H -3.3933918135859673 1.9774398269896576 0.32739522538504134
H -2.411677860205468 1.7289716475108785 -1.1427544892400858
