12

C 2.661282790268104 0.1712102891455438 -0.04739306471175577
C 1.50657618240446 0.5261225868313701 -0.5700401247257882
C 0.2268791674911691 -0.17927670430359047 -0.2858984283565743
C -0.8833041312114762 0.791381251440059 -0.6297747905419798
C -2.2361439416725966 0.1527178012626345 -0.6269304239216267
H 2.663419035665336 -0.6808035935443599 0.622561965683082
H 3.5353664917617142 0.7474171485445877 -0.31564158203612336
H 0.11424289774825092 -1.1115535026041343 -0.8829935282404605
H 0.17445827800985356 -0.49805916594624605 0.7812415523845602
H -2.992333845850466 0.9616126823055899 -0.42769414080405904
H -2.4306865990215902 -0.3233372868313103 -1.600053809004163
H -2.339756325592763 -0.5574315063001567 0.214034575258951
