11

C -2.2785072702440616 -0.4013907517655207 0.5181016072703942
C -1.7353702507126207 0.46724229532236383 -0.29191761901146834
C -0.30251718296760477 0.5583560231459033 -0.47446250210637375
C 0.7470619123679951 1.2067977240547065 -1.1248349153399348
C 1.0912273029175996 0.1709387013149382 -0.22920509178354667
C 1.948229600322575 -0.5945220164938174 0.3898633905280691
H -3.3480323335949196 -0.45867061735323433 0.6448284839923047
H -1.701293521707861 -1.1155238401143996 1.1114709303210206
H 0.9721074083057638 1.99273520697478 -1.8388594882632245
H 1.6145710903455897 -1.3496116998054746 1.0841449251778212
H 2.9925232449670682 -0.4763510252798427 0.21087027921478055
