25

C 2.129286756764709 2.638640487511963 -0.5903054857915985
C 2.2785441107861533 1.4033494172716392 -0.16058940321700116
C 1.195518997804737 0.4272355467173395 -0.2839465289952559
C 1.5458918394455383 -0.8486729797771871 0.4516177706324935
C 1.075890653363741 -2.0486442717732776 -0.32827089802829645
C -0.39517132505432956 -2.148235301709344 -0.4719612322297587
C -1.1779362611817754 -1.206432664001507 0.3967563469124394
C -1.2162530639119966 0.17545248661711105 -0.17697247448048592
C -2.5379887812058595 0.864921971738415 -0.017062177531597125
C -0.06914957054649627 0.9755993451952979 0.3880640599916428
H 2.9157344362271083 3.3625529747512175 -0.5052842038887028
H 1.1940242248277129 2.9234464344182016 -1.0365792003979948
H 0.9388708146076833 0.16408411703682008 -1.332821100028883
H 1.1735402910650223 -0.8389752695018212 1.4929900790727573
H 2.6723418102533745 -0.903098340452825 0.45657598856987186
H 1.541482426259141 -2.9847943909620884 -0.007172376334420546
H -0.7345015370003821 -3.1840568881993456 -0.2926340528868223
H -0.6573949563594751 -1.899609557225911 -1.5326110218580846
H -2.2291673599020365 -1.609566099870446 0.43288660717625776
H -0.8331155886227852 -1.2056266348169502 1.4480280872275795
H -2.6061713293768523 1.4704077458310219 0.9192948968079133
H -2.6973610960277927 1.5092875146331504 -0.9164473955371629
H -3.331268795329412 0.10731108328040438 0.02698822698299122
H 0.04753803790295446 0.8158907509354992 1.48021489706822
H -0.22318473479089446 2.039532522342515 0.15924059076578886
