16

C 2.2255557788337077 1.7240390326932125 -0.12627037887253723
C 1.4744768148194305 0.9086465223993752 -0.8480733573265609
C 0.76150428205205 -0.14018693213452957 -0.2281140525709143
C 1.3762109859776903 -1.4432934805453055 -0.14283989649688708
C -0.40572047515279347 0.1673722062946497 0.21463461879487084
C -1.6083868253597837 0.21281328919294606 0.7054147764623604
C -2.68358831744824 -0.05298562136866544 -0.17829551923063833
H 2.30461516572478 1.6010785945455368 0.941332242501269
H 2.789728125651625 2.541105246280257 -0.5557458613598276
H 0.798034533162543 -2.1918619818429543 0.43999144478721725
H 2.3353743843114256 -1.3265865744582208 0.4444791170911198
H 1.589120384798331 -1.933031893152574 -1.1135273142476916
H -1.7635553282510972 0.4383726664219039 1.7236524081023346
H -2.4485121277924677 -0.5106618867554082 -1.1608057417839575
H -3.3624286026610526 0.8056749284041741 -0.4240182555491466
H -3.38242877866357 -0.8004941159773112 0.30818576970351397
