32

C 4.3328411051704245 1.438171250971504 2.297046717006873
C 4.348454542035796 0.12781971300952985 2.34874782962159
C 4.689842128431672 -0.7396938864275986 1.1926656091870307
C 3.3876297325610008 -0.9799843929824461 0.42254152991010757
C 2.8714901156922545 0.3225930975035533 -0.016787800961275107
C 1.6519057374420067 0.40609554750201626 -0.5031740573113092
C 0.8330406072064275 -0.7732758636178706 -0.6021328057902954
C -0.3821938199324559 -0.7089823528772193 -1.0832886139864786
C -0.9007316533668309 0.6085193817920426 -1.5262799007517995
C -2.3471167659837215 0.5312399043309445 -1.9497325103069476
C -3.248895469276496 0.08185851259725017 -0.8905761956059363
C -4.228679538325829 0.8910972965998111 -0.5047949725739012
C -3.129904438628261 -1.2451386853271404 -0.21303152202917622
C -4.331821130979484 -1.520253235877504 0.6449616180882884
H 4.564202017311469 2.03086507861179 1.4163963707929756
H 4.0686647905727975 1.9777724125374898 3.202487757602091
H 5.078606464401789 -1.7280640150213629 1.5170868289092436
H 5.404001310406928 -0.24211768052660654 0.49611069215402065
H 2.6612269394586727 -1.432700740432457 1.1378653278733533
H 3.6053756644711874 -1.627470705260332 -0.4338109310940453
H 1.3268106778476887 1.3986278358908935 -0.8115933345441686
H 1.213248529110188 -1.722055434619032 -0.2805099947365732
H -0.3042776956713175 0.880887779346146 -2.4356918297626273
H -0.7130831581624889 1.4046744047184816 -0.7935463214870146
H -2.656575083373028 1.5282258388961851 -2.3112147269070187
H -2.4245946434959804 -0.16560190991050677 -2.8191801283720315
H -4.385639007975209 1.8699925986051222 -0.9437078924557006
H -4.920405508689272 0.6024822146796218 0.2745757636692101
H -2.2377151410515097 -1.3273906973992844 0.4174594440902846
H -4.341531027431004 -0.8679736466427881 1.5645845457424106
H -4.193165681488954 -2.5637893713456 1.0541274277856811
H -5.291010598288637 -1.4135397965047003 0.13239607624317823
