22

C 3.105879688079424 -1.4696677436905652 -1.023346702815819
C 2.7210820748770277 -0.22317321329490636 -1.1526311909848943
C 2.3360431411529303 0.5373929143157988 -0.01678468263748695
C 2.973998058778255 1.671234773250009 0.6257395951500541
C 1.2199851661660075 0.15622370629372354 0.5442407468358963
C 0.04082021387305621 -0.1582589723891308 1.040406946854625
C -1.0895793230061184 0.5408015432726153 0.45709826239916207
C -1.7489299856717104 -0.1674245510415894 -0.6884347337848238
C -2.3165686997444848 -1.4956934470812744 -0.43727427527279206
C -3.2328962934453664 -0.27140838487509156 -0.5851201679090945
C -4.485750936829405 0.10800429948922985 -0.5746491478719419
H 3.130314034458368 -1.9198225208469846 -0.0506777431447368
H 3.4036484035123724 -2.073516571164127 -1.8610054199798525
H 3.3499674631792264 1.3255557458425797 1.632768080361708
H 3.8394755389343005 2.087226788075117 0.07556091385430212
H 2.2097036840768043 2.462326883933189 0.8178499595552717
H 0.09628997963104567 -0.8827205634258597 1.7996588787017753
H -1.8185572876701857 0.9556883301072813 1.1519182054661887
H -1.3963466918886662 0.0830759921848977 -1.7116927803088713
H -2.3106121596287568 -1.876385747962353 0.589947908046404
H -5.3270271593211875 -0.5488886475375704 -0.4178501399131095
H -4.700938909512765 1.1594293865449792 -0.7348808335868986
