29

C 3.7236718979429444 0.8183419850908749 0.4573741695538415
C 3.218719078701997 -0.32923645746154667 0.29935648664527986
C 1.9167533963522547 -0.852753270343333 0.037101628047879205
C 1.69653640367117 -2.1521356745627664 -0.07091370236425738
C 0.41284720427160937 -2.795022557280463 -0.336920346735932
C -0.7720845239783383 -1.931654568347885 -0.47339960711550566
C -1.8922426136599155 -2.228218828615995 0.4517079030077324
C -2.4726883654721563 -1.0390451470935054 1.081783949042953
C -2.3476265160827663 0.2242136839568336 0.7158155139820191
C -1.531485115515457 0.5132919248550433 -0.46574564538127233
C -0.7780477619177247 1.7316998622778512 -0.4597834012287795
C -1.2967228406026017 2.8704739758203215 -0.7576970368886055
C -1.7660198390276944 4.086561511076167 -0.9930932108774296
C 0.6140244555683515 1.5085559186861286 -0.08105157578275371
C 0.7404423411513312 0.02169498663331844 -0.11613752832265548
C -0.3960265550455921 -0.5094707081728173 -0.3354753491986569
H 4.822091327916024 0.8579045632248257 0.6541559987165233
H 3.220312282922999 1.7711563008133866 0.4294495632071355
H 2.548795108731901 -2.858522595493555 0.04630519125153775
H 0.23759897186512852 -3.6241367381209812 0.421694273122095
H 0.5561288416712893 -3.388841738161329 -1.2900190471612754
H -1.2133506579410662 -2.0632140181060508 -1.5267180458433736
H -1.6818987943499113 -3.0471198099179215 1.1700251642814623
H -3.0969376429770232 -1.256726546263895 1.986223570855263
H -2.8576237247454106 0.9775397553102123 1.3124450211054084
H -1.6934396417530504 4.360564828879665 -2.0093354919617754
H -2.1387335082683316 4.6005845856180505 -0.15064913129388474
H 0.9039500216499086 1.8761509572393877 0.900915716553351
H 1.3230567689197135 1.8573638184594683 -0.8974150292161
