25

C 5.079480653027255 -0.3377845726992281 -0.31286320287826863
C 4.087945547587078 -0.6894292194170729 -0.998913007730534
C 2.6891191645904957 -0.6497005800805897 -1.0139062028912413
C 1.8323656974351092 -0.14464918911578514 -0.1826528554051109
C 2.152755558915164 0.5474717163828196 1.0422500623345363
C 1.2432544371987528 0.6215738902765242 2.0020109755637976
C 0.025927781429540386 0.8762915858656074 1.5726457902465358
C -0.4974697834972655 0.21616055750568638 0.3868533982884789
C -1.9519571854459106 0.12099174797428622 0.17196787665346033
C -2.8814202010994716 0.5949350733154818 0.9816962738414573
C -4.187957778640851 0.31127890323566093 0.43771246344303233
C -4.049842074517257 -0.33359421259149064 -0.6999486848405923
C -2.6142412690758765 -0.521399767990165 -0.9867953943595905
C 0.37866215712134194 -0.2788305401162479 -0.46186779976301634
H 5.160237897036766 0.18442682044345646 0.6215200673936101
H 6.089421191517297 -0.6015009984164236 -0.7209722599361392
H 2.2328624728749475 -1.154377017772024 -1.9264177577003305
H 3.1172912054332738 1.000483706403869 1.1507645618752793
H -0.5955572678742387 1.5789116604625044 2.098634516334934
H -2.672440033804732 1.115871333587376 1.9109202679551007
H -5.110028176383616 0.6090987308536073 0.9357542546337441
H -4.912415833447975 -0.6533768881268087 -1.2937766639815849
H -2.3138892050813693 -0.04425355832357418 -1.951469980698941
H -2.3195401964558853 -1.6001426504236675 -0.9861824047348766
H 0.017435241157444267 -0.7684565312336642 -1.3370726373047157
