19

C 0.4251333955781036 0.9395722250664261 2.7312609383599975
C -0.480147551240105 0.17450768534178399 2.132737435269569
C -1.7771706507325176 0.6030584643399678 1.653851454702844
C -2.0999267359653415 0.5248139820278512 0.24701572747877845
C -1.4065727723549042 0.11587774363927739 -0.7493639497376049
C -0.06680550243339127 -0.39146393863141066 -0.704792802418736
C 0.5670916402392024 -0.79586257886134 -1.8283369184254337
C 1.9201285600164184 -1.3075121543251824 -1.7783246224931768
C 2.493465259739956 -1.688294619851735 -2.898899132032033
H 1.382540017171912 0.5615599644667507 3.069440221778234
H 0.24201232533124814 1.9950596588282052 2.91074202151557
H -2.5324229228618975 -0.0682848883032387 2.197975096181887
H -2.048928953667355 1.6141452438756927 2.100135456565681
H -3.1372856350519247 0.8864295332215937 -0.004737615745271108
H -1.8786104660226524 0.14866353040836233 -1.781921614805682
H 0.4809138174581607 -0.47205244335545826 0.19671561880523328
H 2.421712680735863 -1.3611044230558422 -0.8123225076776308
H 3.5140352319510018 -2.0702996321979414 -2.8338552933110823
H 1.9808382621095193 -1.6279250049506442 -3.847319514009082
