33

C 6.477961072827251 0.5182078455230041 0.40477831100607703
C 5.370366346994545 0.3136129446012143 1.0801642567352463
C 4.079645611906489 0.8197740257717541 0.7438664305521201
C 3.773184024042053 0.8053380224122172 -0.5416875812307399
C 3.5193673072587566 0.6413431546880646 -1.8213654679285647
C 2.934876582109583 -0.6399810349537522 -2.2044455593611922
C 2.246291956810258 -1.2836965679840175 -1.0992879563043165
C 1.3176177144807337 -0.5691388933394126 -0.5098618892811498
C 0.336206750465759 0.1808883088832946 -0.04819232952838257
C -0.9472984471127411 0.0310784849106241 -0.7144424306707265
C -1.6479769655798784 -1.1459990927987194 -0.14692734036833413
C -2.8261976656329213 -0.7316869649196749 0.275177314376538
C -2.957252352088124 0.711704179369588 0.011452048943188199
C -4.1737920318203505 1.4842728245424703 0.37062425383036324
C -5.372020058042957 0.6570189058284303 0.3504961861048287
C -5.666519077476854 0.02337664212182736 1.4644135180538669
C -5.879039136278911 -0.5705354823966815 2.623631960859347
C -1.8608173668178403 1.1652751326578514 -0.5679249224827505
H 6.449510795263873 1.1165030650589458 -0.4884451963146582
H 7.390935244910914 0.07813977532653837 0.7664305075195371
H 3.3074996721355467 1.2107938910885372 1.3448328794013151
H 3.7802673595897303 1.4771771658646693 -2.4091234872024128
H 2.2134121341706687 -0.5573614944396937 -3.0589261403792727
H 3.7762420569511543 -1.2803855481089217 -2.6021517726146546
H 2.363277770065793 -2.242456971760735 -0.6810550347788742
H 0.6260032967932972 0.795517585003839 0.7525183003310928
H -1.2891385493299692 -2.1505944884255914 -0.0801779514773781
H -3.5846180669221006 -1.353202402951339 0.7443737850347544
H -4.090751810759989 2.011669147294357 1.3260897301660886
H -6.057216795362986 0.48130170564498614 -0.434137072946499
H -6.473799960108722 -0.011701106062388573 3.2944177160252326
H -5.423214278082752 -1.5192052587566842 2.7146378670786704
H -1.7130131353588534 2.187707497215185 -0.8597529331476337
