9

C 1.5287572232992825 -0.4086618925822353 0.0559005498997236
C 0.9299269850879421 0.6933379037052712 -0.3247215005273375
C -0.49100791219670564 0.8029313835368693 -0.27375579054355437
C -1.3006657214080806 -0.12662000901334863 0.13307298953321844
H 1.0051157081684488 -1.274483673643911 0.4198097771478995
H 2.6087821413086174 -0.41076317055327494 -0.013763649779945205
H -0.926246059361106 1.763479878162475 -0.6111739158026696
H -0.9914237077357161 -1.0966160854969855 0.4823019356567858
H -2.363238657162692 0.05739566588513596 0.1323296044158798
