8

C -1.7814330750282716 -0.31588073329861494 -0.14379820729843512
C -0.6358512374314893 -0.711562310545691 0.32741902922268995
C 0.6151705995188997 -0.027602086265930543 0.13610760602316874
C 1.2041498649137505 1.0269335057255768 -0.41729114447286964
C 2.0303292342040624 0.1338760097900255 0.3069233072100261
H -2.6842538193352725 -0.8396497072218241 0.013349185981153294
H -1.8094971800257291 0.604765503185628 -0.7315064837433201
H 3.061385613184045 0.12911981863083932 0.5087967070775897
