44

C 8.38830287297964 2.5605651516932886 -0.08689012785210806
C 7.701451160361881 1.4525275098025727 0.029611434689032906
C 8.236787583472935 0.19729583868679662 0.47741101115854734
C 7.567902965502856 -0.8927904418899509 0.5936853730806465
C 6.162681275730389 -1.0443124389778882 0.2942344227547794
C 5.312491315317949 -0.1445691600109195 -0.13902330935321294
C 3.990337033930793 -0.7885476789279883 -0.293393200982967
C 3.6094872777364846 -0.7513068709307112 -1.7207650094037423
C 2.397188068587092 -0.39592530000373777 -2.0594944330468365
C 1.4252584193805362 -0.038650494418317624 -1.045586035890618
C 0.20408498731726235 0.3191272121192863 -1.3921510664536851
C -0.7668421535301579 0.675046737349167 -0.395915067143751
C -1.995324060880545 1.0383683325593644 -0.6830747240006837
C -2.971611975734388 1.3948114793845923 0.29416352293584713
C -3.8876245644543355 0.4754218072402538 0.5509747905050604
C -4.803361687084641 -0.45419112356298613 0.6590904371284956
C -5.905925147265149 -0.3706760346499449 -0.2337983815339205
C -7.084870040042859 -0.6994635813882898 0.2704768461995514
C -8.218708769029998 -0.9450991760261728 0.8916763683497335
C -8.851643523120666 0.1762271278503947 1.5112263396108843
C -10.021599203259026 0.5302945426967492 1.0244399319634525
C -11.18397461306281 0.8170611039729111 0.4707594783300185
C 4.171568243944752 -2.1843323059671325 0.1052787598480609
C 5.424726886557747 -2.3215685710836267 0.441604483772564
H 7.889531186750805 3.446105315613158 -0.4319693692927306
H 9.44644666004215 2.6322170638260802 0.14941122075311547
H 9.313310170027298 0.20007691328100943 0.735559310327457
H 8.115679701241573 -1.7787596164970338 0.9505822143975313
H 5.48512826254434 0.8905905630535044 -0.3606897947345423
H 4.331457881831557 -1.0162123824536518 -2.465239282920374
H 2.1249910687425206 -0.3707557447502501 -3.1052772202282277
H 1.7332589798823665 -0.0745626958781521 0.009713340850097854
H -0.0610086000179371 0.3426561877065117 -2.432361077794085
H -0.49309185418660545 0.6491645943403295 0.6475634394623366
H -2.2703657335814413 1.0635053825609158 -1.7470515512233327
H -3.102370186640014 2.272633028657791 0.8605469545726442
H -4.6112926174693 -1.1663715424707195 1.405512804122252
H -5.962820868576167 -0.08874510439914537 -1.245348844874286
H -8.511157532130053 -1.957946068837723 0.8480505182239089
H -8.522871343146022 0.7782045718431627 2.3149783690056895
H -12.008181387638892 0.3191303729563535 0.9078658026467002
H -11.127559128906253 1.5031515920514784 -0.33191276312146034
H 3.4503790386125632 -2.999794456141455 0.13931338028617357
H 5.879753949253921 -3.249601639979697 0.7870526106112965
