23

C -5.550218601002266 0.8683299959955458 0.13012693262216368
C -5.639187333241494 -0.4224986914235347 0.3903487461331947
C -4.626909884110968 -1.3453740196344472 -0.07820613659757426
C -3.454459664388162 -0.9390121215309758 -0.4443315460767964
C -2.199532706316183 -0.6367814298385238 -0.6104446075108707
C -1.045382332515511 -0.028129485460142233 -0.6679104252092016
C -0.008011396833043796 -0.23647574611999989 0.3369343215053949
C 1.2624281866657658 -0.010771422710899752 0.07721769931846291
C 2.2697898555279745 -0.22359607236793577 1.0855561288234334
C 3.554642214725276 -0.03328193141676964 0.9405128873527902
C 4.103871304503414 0.43198651755600176 -0.31135587667217296
C 5.403217886297205 0.6087530528988752 -0.40937860121039027
H -6.312124311190757 1.5491994548247443 0.4849851200468485
H -4.7116891760501245 1.2344486350649178 -0.43851117823596525
H -4.869201345637648 -2.4131643057463177 -0.12029004704517327
H -0.8686208332574182 0.6589700035077403 -1.5072871817730649
H -0.2741147543088498 -0.5843387474718634 1.322930800585367
H 1.5159055802276167 0.33344710055306276 -0.9018611192011404
H 1.933612888757241 -0.5802257511568751 2.0744730717710556
H 4.225602812864417 -0.22801750495046835 1.7763431509479573
H 3.4418309853716105 0.6339658979247363 -1.1665534910509319
H 6.032720743937569 0.4096403668134645 0.42566058465498613
H 5.815829879975052 0.9529262046896512 -1.3332402998940296
