47

C 5.5527979859868095 -3.0259843026299653 -0.8431586251354684
C 5.420843136370046 -2.131819614904882 0.1272106634050034
C 4.119431692181619 -1.6606774140802405 0.6397429079704853
C 4.048016233750327 -0.1728381851466651 0.4680476560672897
C 5.053614601961058 0.4789459492196487 -0.06689157079180799
C 2.869712256317662 0.5697037548629591 0.8890112631592396
C 1.824961999122268 -0.02235195629333718 1.4331431810778565
C 0.6046634346160543 0.6889260026900674 1.8769977946659167
C 0.038808425711663035 1.5627492124644236 0.8262919802742861
C 0.3257006342828522 2.8577290791499688 0.7488508555047915
C -0.21017473576654208 3.762279448403897 -0.2732272064414333
C 0.7247842044056081 4.8672100351364 -0.5400330582445593
C 0.8490186864618133 5.374463551755768 -1.7562088370050302
C -0.8731956267055286 0.982457794367039 -0.1690167891510389
C -0.5366932554664887 -0.38096356326568853 -0.5816537070820045
C -1.4408348661166037 -1.3403069403076155 -0.7033098331242947
C -2.8466620264975293 -1.0673782575235222 -0.4228163461739746
C -3.953395735555867 -1.828127801577123 -0.46166642032701144
C -3.926027402972539 -3.2152190814374015 -0.8349005503151918
C -4.789783951411556 -3.995001402289544 -0.2315471764954503
C -5.691544608014364 -4.706528435070133 0.42428381535305143
C -5.055420160895097 -0.9867406756394096 -0.07479150615301246
C -4.674592951796574 0.23692516915623718 0.1945897817081118
C -3.212636239764 0.26671714418628784 -0.01362997454208389
C -2.2931260757724647 1.200211045587599 0.09887349532818498
H 4.695329727611801 -3.4611549864730184 -1.3144914896708544
H 6.554334425870068 -3.2971280400040315 -1.1383708346921038
H 4.107126002796602 -1.883107862567507 1.7404885724300476
H 3.2932829747712193 -2.1741537244533795 0.12440093059046896
H 5.002365488829698 1.5317358917504267 -0.1880671046142474
H 5.922972513020565 -0.09008293147317228 -0.37455741844195234
H 2.8514344199032102 1.635847162038922 0.751413286096468
H 1.863196475610766 -1.0917136049212737 1.562327133956021
H 0.7786159848984664 1.2586854643528975 2.8168541626346606
H 1.0009694321894844 3.2623753388487695 1.4945723520233896
H -1.2484029181619531 4.098895114922777 -0.07557409498080528
H 1.3241405171356164 5.2809048182708205 0.2541072632935125
H 0.266406619484827 4.996548054724397 -2.607470357460692
H 1.5350920820386489 6.190622320048878 -1.9695629861843456
H 0.5238989807408322 -0.5780053055604326 -0.7909034573422675
H -1.1641433397264853 -2.3441273462493584 -1.0113912310510496
H -3.305952641130439 -3.709840193695381 -1.5325183125637296
H -5.342983362298028 -5.113163184156221 1.3341000718471665
H -6.629909247161194 -4.763958088034699 -0.057423730406465416
H -6.088811513391863 -1.3463416323054629 -0.017717245078869674
H -5.25106959298304 1.1053373794071295 0.5109541062263393
H -2.6161586844810634 2.177444798714355 0.40672513574973407
