19

C 1.1946880552333154 2.2236858399443915 1.4206624970625137
C 0.28483835413548514 2.469375185375276 0.48981904871765636
C -0.8048169165699366 1.5132656299862361 0.1852556576761341
C -0.36765614309926725 0.37017362774016616 -0.6251710968364065
C 0.209205275981819 0.5915441375517903 -1.962968044739373
C -0.48163475432948566 -0.8567883274060322 -0.1772967599866141
C -0.08709894615574847 -2.035413521528636 -0.8859100656663207
C -0.23918195460383143 -3.225652335333082 -0.3576042182857525
H 1.128373001290658 1.2961204865266098 1.9654793225254061
H 1.9829637867039227 2.93644247322347 1.6273096794422532
H -1.2351298935749133 1.2052359990936696 1.172337467660193
H -1.623943168830253 2.099551605617009 -0.31354907132985865
H -0.284602544827562 -0.03293760302334438 -2.7448083568038903
H 1.278261051551012 0.24898288675737987 -1.912815224143896
H 0.21443507960190433 1.6585965257401352 -2.2590498441082842
H -0.9136056587570491 -0.9778129922204041 0.8175164274879287
H 0.3401897790117909 -1.9448879326393076 -1.8654436471072275
H 0.06353855451067451 -4.132713640565952 -0.9008897977151624
H -0.6588229572726998 -3.40676804484318 0.6187092198878679
