47

C 6.69668776992772 1.6110131472470457 1.2921042878463966
C 6.112430676774108 1.6491475786102758 0.11986993322606565
C 4.804280440128047 0.9086716634540779 -0.1503352605842676
C 5.131966088567743 -0.36999254528034164 -0.7941654806302787
C 6.463695272913566 -0.6177849406919829 -1.0092471159689107
C 4.205864647437774 -1.3688287855140933 -1.2161876922413617
C 2.9060971403012514 -1.4091330129586415 -1.1424580442929064
C 1.9677458375706103 -0.4635435561307874 -0.6117710154139787
C 0.6536876709970135 -0.6300443025159379 -0.6010991542186609
C 0.04880726144126718 -1.8131666800950625 -1.1400701339290709
C -1.2779529460272154 -1.9464180259275934 -1.1123493210820923
C -1.9515380986965478 -3.114795543050232 -1.639259606688699
C -3.2597512489954963 -3.1925713619207503 -1.5858681180150571
C -0.14781639727743304 0.44762979453498286 -0.014740383891814689
C -0.8929977927790935 1.2105209289147232 -0.9942538850101851
C -2.1217683642479948 1.6981690567561984 -0.7939508063691102
C -2.725552386923516 1.4269441296961543 0.5037516416798652
C -3.923643934076975 1.7657912757578942 1.0161325195460709
C -4.89975886764574 2.525325560656316 0.29726717027164873
C -5.98364536271148 1.8750035297073266 -0.07314543509170274
C -7.025238837365052 1.1615839031083002 -0.3982119877157779
C -4.013676430829303 1.2397624932348625 2.3427695721745985
C -2.911103132492614 0.5864590167874767 2.6693771397653294
C -2.020732869169717 0.6644741622219718 1.5187011086227928
C -0.7839093583171312 0.19525322358418992 1.2608772443832872
H 7.612927285012699 2.1345688004442653 1.4664337878109306
H 6.280101102524845 1.048454119222938 2.144249578156804
H 4.365808648492502 0.7906217251170181 0.8361044262812831
H 4.2124388809227895 1.6081331167859516 -0.7817139110331881
H 7.21007238611608 0.09578460266145619 -0.7160738410022381
H 6.72000150230735 -1.5425597777592728 -1.475910602217042
H 4.675938199766262 -2.295306165999091 -1.7031868478315657
H 2.4342914093099353 -2.33117774659408 -1.5599819155649444
H 2.3662383242808662 0.4557604085522793 -0.18592027373356648
H 0.5838533303530835 -2.622053149703304 -1.5755277788984328
H -1.855970462359368 -1.1675261298254613 -0.6889117937790974
H -1.3956902839611198 -3.925886465261337 -2.0768607283581826
H -3.849815740817494 -4.013393809480679 -1.94783318041075
H -3.84907260071585 -2.374539802549941 -1.1428468484869985
H -0.4191013870914059 1.3994745620865783 -1.9588038386196356
H -2.646567764836244 2.2689528129389025 -1.559039917374645
H -4.893624612465615 3.5406805664212544 0.009510770467976883
H -7.80989104604208 1.1453557361523239 0.3110664660778377
H -6.955240293951833 0.674755540080051 -1.3525089930187386
H -4.8561497879494295 1.3466461123043139 3.0097345645513287
H -2.6701799179661583 0.08269788538883147 3.58393529245901
H -0.31254394943697134 -0.3589136511671181 2.030783925854619
