34

C -3.55263592561171 -2.3228295116974342 0.1736439396320203
C -2.313601538287329 -2.4599321348147796 0.3845526806784065
C -1.1415117359442264 -1.6926282141854623 0.4333067728352339
C -1.0504469150847668 -0.401709281539867 0.23122978169098202
C -2.18774950758379 0.46088339969432185 -0.08470846240691039
C -1.7672522821774657 1.8790877399029888 -0.24099362881771602
C -2.7377691674444335 2.7423384064275775 -0.3194778258756178
C -3.7699901856916105 3.565528185051477 -0.39478134401001097
C 0.13514598810762643 -2.421713936902337 0.7478053778374585
C 0.05634316690363486 -3.7099133317956876 0.9508622561185452
C 1.391301756693378 -1.7041271089458148 0.8168121195486351
C 1.4527915590343858 -0.39787929304280345 0.6080975112504642
C 2.6894374302179695 0.3808240277552253 0.6639535930059709
C 3.7500986691837666 -0.28117660849823556 -0.21577585631648977
C 2.499394062271199 1.740869424709153 0.16650752513947323
C 2.450983097241499 1.886130206322014 -1.1369164463522017
C 2.418146017270768 1.9344511620066345 -2.454611394359108
H -4.216780242991351 -3.219683947096134 0.22366551193181
H -4.10821377313704 -1.4147272165914233 -0.06324043860283153
H -2.660997482611292 0.13270444899112852 -1.0488497538237391
H -2.912327265374322 0.4219759071526996 0.7432297817738939
H -0.7922347375898714 2.2662804900513844 -0.29537667263569434
H -4.092184244838274 3.9394622768901093 0.5383457637681492
H -4.120708142740092 3.7272418146256276 -1.3777267895296166
H -0.875631807903862 -4.2454964155287485 0.8994567784784638
H 0.9353881377035567 -4.297582200970311 1.1802052229739268
H 2.284572654902715 -2.2524021865536223 1.0425384502760238
H 3.0837599633289927 0.3318472600477477 1.700524517347277
H 3.2471832375232186 -0.4993513899586092 -1.180416672384354
H 4.5059168102845 0.5227479939042072 -0.41180003089544703
H 4.195920678152578 -1.1540975383530883 0.26417635134662737
H 2.3928182155935374 2.6434946407317783 0.7057711678030532
H 1.450156396268252 1.824734410549236 -2.8668268131015187
H 3.3606771143366596 2.074648521668384 -2.908782977895275
