15

C -1.7481245699532348 1.1959091246812505 0.7860077614001807
C -0.49606711574006135 0.9757751627309745 0.510661352766783
C -0.10105091348766773 -0.2660190342528032 -0.11111695330887393
C -1.1524935333211725 -1.2575881806369626 -0.41665449284077294
C 1.1823431995488582 -0.44650440573537176 -0.3727480605891231
C 2.2021254290565477 0.5681960418571791 -0.052224414024469965
H -1.9917503841479025 2.155057939650723 1.257664421193385
H -2.559501033209768 0.5193267423886007 0.5906354727807754
H -1.6700724743785922 -1.5487687658102665 0.5353769646585348
H -1.9269608147510064 -0.7843594185020353 -1.0608873854550804
H -0.7452320324227726 -2.1765059784119605 -0.8784261287291709
H 1.4804252675968352 -1.3934002244193187 -0.8464378311078788
H 2.3344180355705717 1.3220434311733138 -0.8742969847060307
H 1.9965773218552991 1.091005668716588 0.914933455398711
H 3.195363617784099 0.04583189657008321 0.017512822563019555
