47

C -6.861533019760375 0.20641551771193703 -3.5782632679720736
C -5.785246919483077 -0.5511688725299386 -3.7211634071850046
C -4.550646471604332 -0.33647731560246835 -2.9473726021535462
C -4.196483407524747 -1.507745008611849 -2.1228014666468598
C -4.978357582850721 -2.5699335744886866 -2.1603439803774425
C -3.023254974789497 -1.4859984332388163 -1.2982030503754125
C -2.2113068319034435 -0.39313773463553375 -1.2542213097790882
C -1.0686258161621605 -0.45125061886773 -0.41238996320053256
C -0.1289905336257575 0.5296601673712915 -0.22267513495744767
C -0.30424494142116737 1.7298951327662926 -0.9337149037889286
C 0.09866492209034179 2.8705867407214343 -1.2041365401553557
C 1.1137412815694843 3.8083732970696924 -0.9397074805188158
C 1.0888118138646419 5.0299210905922385 -1.554116566854341
C 0.9096064558119101 0.14811755152847303 0.7027597701742627
C 1.9264389044752217 0.9835655800499712 1.0185739915138032
C 2.956346618876845 0.6549253514722233 1.912005098332576
C 4.056759170449025 1.3584952971726347 2.3514558479185017
C 4.732237967761936 0.5606341888227899 3.220833480120772
C 4.011368188424875 -0.7305980246926018 3.337815706837933
C 4.359277666938006 -1.871374243247095 4.141469088921624
C 4.91780446088262 -2.8743053192957375 3.5063794407269366
C 5.473553183294215 -3.837222947925216 2.790327887426542
C 2.953579703508418 -0.6672431360548854 2.554723318816552
C 1.8351886160069435 -1.559299836737641 2.194317251735064
C 0.881559021073502 -1.1752374094380578 1.3284798965536022
H -7.73891100852014 0.005368329002769333 -4.170112125789484
H -6.830825374284115 1.0138063506632404 -2.8649821844016565
H -4.695480056598852 0.5825104937326276 -2.3346401293257273
H -3.693220553775428 -0.10832270355144452 -3.6221902958504715
H -4.736798953595079 -3.434857625636869 -1.5656344972752125
H -5.855895095345808 -2.609161625376815 -2.7661056662933516
H -2.764976112170462 -2.332848426690947 -0.700490957274876
H -2.500512661507397 0.42485970605760764 -1.859845290680052
H -0.922793706950824 -1.3577239033007231 0.13433654163852068
H -1.3310072964787383 1.588789790751322 -1.5956379809461143
H -0.648805416894773 3.4132677070959994 -2.001272928379935
H 1.959338083653435 3.6990452749987393 -0.2844873907906749
H 0.26145278138636957 5.187206386151332 -2.219817582273403
H 1.8313243486465376 5.766748698857768 -1.3855292760406015
H 1.8854194783921303 1.909733690024916 0.5372857557563334
H 4.427857351395417 2.3475903697324823 2.1330554687336942
H 5.6315794774412105 0.8138177109739029 3.7369135819933694
H 4.233131293152758 -2.029171243462553 5.178200526959687
H 4.785599130934468 -4.532249590205112 2.392611857888121
H 6.525841176901748 -3.7703203126949343 2.7199339329290675
H 1.8257831349721179 -2.5307709091335706 2.661611873304805
H 0.14565250334166976 -1.9169156078976304 1.1667656610021406
