23

C -4.5978330111864905 0.9026119978201004 0.1571258452529508
C -3.6057925092909273 0.044191234419091424 0.040209087461259875
C -2.253124521557684 0.4612995537041452 -0.44389118504626457
C -1.2077491239792808 -0.20533509999642874 0.3785670679183308
C -1.1692861477427228 -1.6905919825511968 0.39605142068362764
C -0.3225087880305443 0.46881598143387326 1.0858996180625289
C 0.6728559477796394 -0.23745861446444197 1.8683811082863644
C 1.9510352002503746 -0.0295452088206305 1.588234982217912
C 3.09985222840609 0.37735338863991263 1.129033210710471
C 3.6272921409197507 -0.24200144991121703 -0.060896634793092944
C 4.7811036469346035 0.09137236004358591 -0.6135552008303699
H -4.421034699468612 1.933787930675986 -0.10588420253461771
H -5.5533403693009475 0.5586557256328333 0.509170601786446
H -2.087362800281926 0.13055773159220133 -1.5067195592781302
H -2.2152784233532903 1.5554013679804042 -0.3699521442911359
H -1.7961838479867884 -2.106301814811672 1.2390680096213473
H -1.5706185071569114 -2.1289081426064653 -0.5583606225495364
H -0.13681902234448434 -2.0735681479568493 0.6047121655294734
H -0.38795992898611076 1.5520403675954038 1.0435370780157787
H 3.578250057440591 1.1651174012996433 1.6833744460669768
H 3.0582895238381913 -1.020417218498252 -0.534076212378224
H 5.4118060358822 0.8810987704337943 -0.17785001486635138
H 5.1444069192155 -0.38817613165397263 -1.4974497045145507
