19

C 4.486256341010615 0.9007987682287859 -0.1055615282797684
C 3.8631537375545486 -0.07571984822674269 0.47923078281507686
C 2.4394513884925435 -0.21012255926971757 0.3922976433479728
C 1.6757497567478794 0.6178840115221172 -0.2652200988722684
C 0.23399776377059894 0.37573266685566603 -0.28128163916187343
C -0.2643498199346985 -0.6589737822374475 0.35862344662421447
C -1.6570320324358379 -0.9549623133004524 0.38523713111262287
C -2.554806097583787 -0.22184985714193972 -0.22469021818785373
C -3.993087822231348 -0.5986165560332452 -0.1489569626034297
H 5.559249708452215 0.9638322075099209 -0.014074705940807515
H 3.989610584102263 1.6506943590684429 -0.6766639529720131
H 1.9900437584576998 -1.0460731124078255 0.903407606321233
H 2.0272110634801193 1.4813400731837105 -0.8072566841055986
H -0.37963288174576276 1.0716455240286442 -0.8303980078973062
H -1.9751145253058435 -1.8375333160214786 0.9444129207673155
H -2.3296154011071013 0.6609357362551816 -0.7957157595694466
H -4.439936146217051 -0.7091407426636092 -1.1606169186825968
H -4.5415040901310775 0.16175441831966186 0.4680108860789516
H -4.1296452853151795 -1.571625677632763 0.36600407593008977
