36

C -6.53410598002652 0.5588088463042596 0.7948949111391153
C -5.771556876933741 0.9607802971019285 -0.18867813359283572
C -4.800941571609665 0.13745041189046725 -0.9180129407554886
C -3.9677183007744548 -0.7117613430812921 -0.030254309308430517
C -3.978374379326162 -2.0305789871328734 -0.1452689196681772
C -3.1255913434439426 -0.024160193353703636 0.9874887787650078
C -2.1369763586601778 0.9156037049187574 0.3210917484061747
C -1.2965514676417915 0.10011725869915696 -0.5596779135528588
C -0.17579613635026722 -0.3271654405762479 -0.051169569606550946
C 0.9435230514444259 -0.6613903177608713 0.5192912187163602
C 2.017913520110689 0.2938521370754032 0.36293586439775943
C 3.2214931053966684 -0.1959916877338578 0.1353346481031305
C 4.356234120502104 0.7433002628166957 -0.03214473470096537
C 4.956208498277829 0.5840020680382126 -1.4188154016708412
C 5.345227810016683 0.43494560458698417 1.03028025875958
C 6.5673676314348794 0.07649883200320012 0.7064693001939523
H -7.218449182208657 1.2395140027057332 1.2698892858861421
H -6.484012217469654 -0.45933340616530477 1.1391893913276951
H -5.32046236110518 -0.4414789221554358 -1.6999859438728597
H -4.0785881685590795 0.8257506321019279 -1.4464030119041174
H -3.3913777629069717 -2.693288713854302 0.47512094569695157
H -4.607065256138089 -2.4848054360170715 -0.9004705471088943
H -2.492468291878558 -0.7896963963678593 1.525395960254306
H -3.730009528168667 0.4916243645845022 1.7568660858888678
H -1.569736341194352 1.4175582836971283 1.1016710771321487
H -1.4629896044617086 -0.19583272632872958 -1.555621677999218
H 0.9336333290256789 -1.5817118136887551 1.0252226382966714
H 1.8771485179529115 1.3504528766893906 0.4231504525459626
H 3.443691949343686 -1.2500937790716455 0.060921453788748525
H 4.028442948084174 1.7956766396976689 0.13567994667471175
H 5.280449682213441 -0.4856798012411119 -1.5056073219281838
H 4.203292719819004 0.7483753773992987 -2.199770509417158
H 5.806685290369491 1.2843079364741719 -1.5006176360604937
H 5.019948744863966 0.5173464323780249 2.058306369736055
H 6.86974323350125 0.0010254498629568378 -0.3299531616949842
H 7.271766976507718 -0.14402245449745066 1.527539593692535
