18

C 3.3731434851598743 1.3016686822079768 -0.0709690233814558
C 2.4506086236424713 0.6579028465591839 0.6138568771947532
C 2.5036392142236177 -0.8257291047193416 0.6570855346725369
C 1.409357324585038 -1.4399645827025176 -0.13838026043630383
C 0.21541602409011115 -0.9315021350410456 -0.02584303722893398
C -1.0401172877866938 -0.663953448870989 0.18267981757206064
C -2.3191766520489376 -0.4528519293324327 0.2412304602761203
C -2.874315766201292 0.6863065008738829 -0.4515242015300188
C -4.171969476916583 0.9161734441425261 -0.4028828496019911
H 3.3821736701515834 2.3808463721456254 -0.1359449390970932
H 4.144402810695425 0.7549975620182264 -0.5845688140545975
H 3.506754310979999 -1.18982809658074 0.32024100602144656
H 2.428010315159282 -1.1771555337002728 1.7265072231910894
H 1.6376055427922316 -2.281193454363945 -0.778808157689081
H -2.9878410456039775 -1.09886650843655 0.7903945541298482
H -2.215237051968422 1.3349313795328395 -1.0009459425441398
H -4.8299092900140215 0.2618016765302126 0.15030306284767847
H -4.612544750938427 1.7664163297367594 -0.9157677577664309
