14

C 2.271485359701039 0.23179955042986555 0.1091848205870789
C 1.467046632001818 -0.466039479831816 -0.6727588365379612
C 0.040809415799152364 -0.14018285102648212 -0.9065776511570247
C -0.7413798412536595 -1.2325484379533351 -0.3209057534355128
C -1.5317982643818366 -0.7737963405967754 0.6167451485632549
C -1.3107335868917833 0.6608680817008964 0.7004054875435367
C -0.4064080074766716 1.0483812456313983 -0.1704511271403075
H 3.3025497683183294 -0.0854129591174471 0.2180176797124547
H 1.9775448856041518 1.1151329682567523 0.6628073874739756
H -0.21687288806687785 -0.1113306432017903 -1.9851962506251049
H -0.6931212723188117 -2.3028879123877366 -0.608815530467195
H -2.2451096475950663 -1.3621949418244665 1.241089711368183
H -1.826631725385356 1.3428076627652097 1.3970785426148082
H -0.08738082805439873 2.0754040571557195 -0.28062362850017397
