27

C -4.823687723367741 0.5042475631285603 0.14393422337321274
C -3.9658906632951245 -0.48047306047315613 0.38839168004024893
C -2.5368465378687124 -0.20650874632248326 0.5895543450827726
C -1.8155806657243616 0.14388088771881322 -0.6873633884517448
C -1.8729458175749962 -0.9215652180564787 -1.6970789264363555
C -1.7513312933823695 -2.205596967901215 -1.3913435216962622
C -0.3849523122340798 0.4403033051386194 -0.3045110531134449
C 0.6029551591662736 -0.2211727717769433 -0.8576740429781983
C 1.977099635694818 0.0301766996873779 -0.5214351724154439
C 2.343291998640122 0.9293737446974658 0.3536524502904218
C 3.7964803257228157 1.1318568100540156 0.6494684369590414
C 4.601049815739439 -0.07940742161414613 0.17473655330833096
H -4.4700339866532826 1.5151778980388277 0.09218930689001423
H -5.859858918242958 0.21205007787471128 0.008131833596967624
H -2.0515766232408295 -1.0748734828796136 1.079439438605388
H -2.370474705210243 0.6567365211356718 1.2920764821116741
H -2.276285146405656 1.055982115452595 -1.119520394940154
H -1.7941064562973472 -2.981632126657248 -2.134711456710751
H -1.604063236273208 -2.4612967986465444 -0.34833864272539566
H -0.2570153313897901 1.2143583227116468 0.4353016403885752
H 0.37956896041169264 -0.9815190026010839 -1.5914344860479142
H 1.657701187429377 1.5523052502739683 0.8921987326063587
H 4.208771299969115 2.006020888857276 0.09663126925707964
H 3.959301159458007 1.2528255382021545 1.7511400042346954
H 4.093650644568592 -1.0037335965490581 0.5068846586313892
H 4.5903471213371745 -0.05410361085387388 -0.9181442505045302
H 5.624432109023236 0.02658718136019624 0.605288241522069
