10

C 1.8453507269709633 0.25344784872941023 0.6887328079707079
C 0.7923547284927789 -0.5350198093104258 0.512782017830469
C -0.22281546390328089 -0.1441427850539697 -0.49570914987117404
C -1.4510418530177387 0.44482937493838853 -0.0174981935771522
C -1.5109341723809313 -0.8314424082522811 -0.3733501870692094
H 2.579712051621374 -0.045252829655316996 1.429884029245787
H 1.9728843797821969 1.1630819645736792 0.11670217008083755
H 0.12881374651327893 0.0771734372070356 -1.530559373412378
H -1.992549502138962 1.3254889236363718 0.37376678319010953
H -2.1417746419396666 -1.7081637168128767 -0.47036023839265817
