20

C -4.68782808234262 0.2748687259876498 -0.5206805695585999
C -4.124610601568371 -0.2681946052539648 0.5289985444607985
C -3.1047629047744287 -1.2622142991920826 0.34283216739075956
C -1.8968458155706882 -0.9026747985913909 0.6865838542771497
C -0.6978775625733612 -0.4361512067012146 0.9486073453167504
C -0.0032296566582551683 0.22471943186857835 -0.14589907063050733
C 1.091581712284114 -0.4995135994710354 -0.7497744635361835
C 2.2361941910875256 0.15485419161631417 -0.8579601371845225
C 3.3460207002356475 0.864498716635551 -0.8209515233804452
C 4.142255067703886 0.734184950783526 0.3900123462956132
H -4.447204765291132 0.03534243911787386 -1.5417259247700392
H -5.451826407208467 1.019702947169568 -0.34609617587477964
H -3.1793701934031056 -2.2473959961308667 -0.03359675983781025
H -0.391025939065289 -0.6079224869598302 1.9501939219493232
H -0.6251784784977481 0.8300598273899911 -0.8017401119268115
H 1.1563613697894817 -1.4790164808011075 -1.1313064860263606
H 3.5022682132557024 1.4387640442281404 -1.6910308110385694
H 4.813008196056106 1.6260213591218338 0.4741817395722442
H 4.787408702120895 -0.1603767986950904 0.326802910964106
H 3.5346622544193878 0.660443637877427 1.313832342194291
