22

C 0.47467371053482976 2.712953674223835 0.6473984210944026
C -0.06003496656689156 1.509231762453739 0.7788483791343704
C -0.5389334404360376 0.6884568069966106 -0.3403664821660663
C -0.4884974299092428 -0.7716397342931147 -0.10181078849597107
C 0.7013102022742527 -1.5166137889248879 0.16053233763074895
C 1.9533532647084986 -1.1919280808728245 0.25199854109145564
C 2.603917845876785 0.12133723650902299 0.10722521285163128
C -1.65571603505469 -1.4522119118132808 -0.1349074794215338
C -2.946460925165681 -0.7877174125208708 -0.3971062416382479
H 0.5560165664134334 3.101793634211894 -0.3614722137451069
H 0.7955032187824813 3.2359280589946593 1.5261186467924253
H -1.6260584198152128 0.9357012249720005 -0.564128308892188
H -0.021866856531396955 1.0183003973605729 -1.2637389469223386
H 0.5207693294418432 -2.6200267664200902 0.3233131833263314
H 2.7061482221751763 -2.0094314314584762 0.4821846132276723
H 3.7250208457288596 -0.05532231366535033 -0.07623647902419377
H 2.213811224840271 0.7226700810863447 -0.7384838366245042
H 2.632780496465604 0.7239766894009949 1.0454483039523947
H -1.6302693033753461 -2.5002127825992035 0.03500404666594415
H -3.153486642666907 -0.016112955508091373 0.39411494838064864
H -2.9914472013200526 -0.3229239527935813 -1.4068728948764695
H -3.770533706399959 -1.5262084353394934 -0.3670629623417189
