24

C -3.0743332463344206 -0.04639941574443654 1.3417830515865083
C -2.1108641347160826 0.16382841123518907 0.4635339296600064
C -1.0645294417960836 -0.8418896383494534 0.2717842804151679
C -1.019828020668705 -1.2751643395937668 -1.18091911357085
C 0.3162407346843078 -0.3575573071445967 0.6387971084812756
C 0.3814527777012854 0.05683752386239743 2.102357895695599
C 0.8268540610427361 0.6924829177761428 -0.2533699142835715
C 1.862551013003792 0.496774048465882 -1.0623278205080504
C 2.387349638969929 1.5332964837610983 -1.9609160870998246
H -3.8847351691301046 0.6461724658036154 1.54363159161002
H -3.0673708970974443 -0.9675760661207942 1.9052316455248626
H -1.2609499896138152 -1.7460877698885455 0.8811883559122449
H -0.2810722332952723 -0.6232786103586135 -1.6950538375616482
H -0.7378251438690414 -2.347103457523625 -1.2276599385308746
H -1.9938293711523407 -1.0780650469044586 -1.6778411143954401
H 0.995892223542778 -1.2479622738783636 0.5517164562802913
H -0.03788416239208468 -0.775943599882287 2.708027923003303
H -0.1737304779052726 0.9960924820698772 2.2745486748290076
H 1.4559308578351182 0.1243760573137021 2.366836577930426
H 0.3636044250714282 1.6721283324845528 -0.2754080929036494
H 2.362232871496725 -0.48344446464550805 -1.071458299364967
H 1.6813199170523208 2.316559866927106 -2.2365953472796836
H 2.785244782898791 1.088264368313542 -2.919648862395384
H 3.288278984663743 2.003659032018421 -1.48823906303247
