35

C -3.8134214039795116 -1.6358493687414568 -1.0296355336609655
C -2.586253369375103 -1.3366474995514592 -1.4034596659578056
C -1.4771348723664057 -1.5154282007012716 -0.43719477942965723
C -0.8646812612264811 -2.8790871457503457 -0.6606559203805246
C -0.44579846797074285 -0.45680633785993774 -0.5621905975641341
C -0.09196613723685276 0.4091232897140093 0.3837385714537994
C -0.616570381085031 0.5085086223835175 1.701909921895944
C -0.8282966082973 1.7375183994799899 2.154682687618481
C -1.0377276941650355 2.9844566867571682 2.479691292718405
C -2.3542377657572406 3.4988932903939047 2.1040028429844373
C 0.9721745414233148 1.279381184996033 -0.18189250309702873
C 2.1758715135012823 1.3405212759906437 0.6481797233871804
C 3.0777495420547507 0.3841775306121487 0.725355825851036
C 2.9239105407117285 -0.8193646743549506 -0.030706974775898815
C 3.8242875065409705 -1.0602611395769583 -0.9463588895556868
C 4.774726267271153 -1.2208943934160608 -1.842723888398786
C 1.183337215937805 0.814233402962222 -1.5485216234239019
C 0.34991825788160336 -0.19764547471792318 -1.755208841267446
H -4.637982404107053 -1.5107231053316885 -1.7253888144343819
H -4.068604609189157 -2.0126743682164014 -0.038502653393745735
H -1.8881037992206247 -1.5225443497737483 0.6013721495521782
H -1.5412772452738905 -3.614728381009878 -0.18542415132069284
H 0.10560404036867038 -2.9361057881075148 -0.1571555152579768
H -0.7658502757095151 -3.0933387684281355 -1.754672883610587
H -0.8769393769601492 -0.22487942523130403 2.405015738817632
H -0.23190312559534904 3.459520080128571 2.9689957998669536
H -2.323251368694589 4.614729211139554 2.1683947431255945
H -3.1432164460591197 3.1360747298824454 2.8076005074399757
H -2.62671558252429 3.2828760798593644 1.0393622925986605
H 2.339076356878145 2.2480041635070096 1.2495115373902461
H 2.1701998472603883 -1.5634926089741108 0.042408342370992995
H 4.559224143191867 -0.7981904188832266 -2.7901680369896376
H 5.622322180032228 -1.7482398745205652 -1.4952441879752891
H 1.891180865492491 1.228137770453122 -2.24912395764206
H 0.2503493762458301 -0.7792543951125077 -2.685992558936091
