49

C -4.836522190278429 -0.5879856635190621 2.590115402086559
C -3.7070798342493205 -0.8934217900761316 1.967402520023696
C -3.017039704897302 0.12887089920798003 1.189775044332433
C -2.252672729255582 -0.31023264679570695 0.0010394653490235293
C -3.0151058408479234 -1.0012735257453855 -1.0844418030815672
C -3.731182862430628 -2.2445703618487123 -0.797970911726947
C -0.9572809446995701 -1.0134825888093888 0.34681130616458916
C -1.0820122484910613 -2.405931891291513 0.8457746318640907
C 0.22080246681607973 -0.4159836128564959 0.2655926280289879
C 0.21543894743427566 1.008212164135015 -0.1724522358221052
C 1.2096251432138057 1.6018076970702255 -0.7409050841065885
C 1.3535407656527056 2.9662239452750967 -1.2102303970888613
C 2.588326040905936 3.228364353093931 -1.7659573662146426
C 0.46689823899950905 4.075388734071737 -1.207514288460231
C -0.7371012306957899 4.193821259887504 -0.7826010476806786
C 1.498174477947159 -1.0185636304102128 0.552783929708983
C 1.861617032845752 -2.2168075616982392 0.9100150159229002
C 3.3680025827607722 -2.3289785420538305 1.0894492200430397
C 3.820855145405705 -1.1503365296282806 0.302424261959958
C 4.898699732716927 -1.0590857672028955 -0.44600767601242675
C 5.299488005886607 0.13335622098172034 -1.2044371259255016
C 2.764076617610497 -0.1419782037724132 0.5813132092278038
H -5.3091420878116855 0.3830112092187019 2.573666897844697
H -5.324074608563366 -1.3673150583172606 3.158280205265545
H -2.2656132648759444 0.6028841829374126 1.8923038095763847
H -3.661905150007998 0.9844475916446501 0.8936389844909012
H -1.936013380970895 0.6401151476419451 -0.5178386686869088
H -2.286872862369936 -1.1628818830608552 -1.9162525602413738
H -3.7426691091627986 -0.23920605372060852 -1.4906850062822443
H -4.524119381578387 -2.344912203613627 -1.6215358755068299
H -3.1285896004821283 -3.187368145620997 -0.9813863189590106
H -4.311817632712188 -2.3278168326018225 0.11625709317416924
H -0.7170992044576028 -3.164122069980709 0.15366010494800902
H -0.6208883784683078 -2.526857959892628 1.8411867349245115
H -2.1827424404720053 -2.615659997952734 1.0928044439600602
H -0.6563414074778768 1.5543822219015877 0.06635335062428345
H 2.1218954904286162 0.9865940929459999 -0.9948864122421666
H 3.2816759872167296 2.43544909976299 -1.7928790701621133
H 2.841482630178227 4.181792056954732 -2.152750374375291
H 0.894278354997805 5.02427156223356 -1.65903783516643
H -1.3339076849996905 3.4452420100070813 -0.3271807180601153
H -1.2737180739871878 5.184577136868376 -0.877626930328248
H 1.2638360867756935 -3.090427595270587 1.0717610961606612
H 3.6470795525585338 -2.2397068200316843 2.142680296667082
H 3.736848232508736 -3.2682072312188897 0.6464592644078715
H 5.00363269247521 1.086014153098518 -0.6965680603700983
H 4.934981440652078 0.13045785124927067 -2.247677661617568
H 6.422342453601231 0.14511340068132036 -1.2327080464081706
H 2.897913734654164 0.20271717612179244 1.6299825577709615
