29

C 5.804143272377579 -0.5425719632181721 -0.1487100562256111
C 4.832286612561938 0.06762594174395309 0.5207238539131809
C 3.852155891028221 0.9735906306044152 -0.13710963717865068
C 2.5572813646840067 0.2213415526734566 -0.2986402121404446
C 2.049967850221168 -0.1940748594395035 1.004153781572869
C 0.9972606454708486 -0.9679251479870283 0.9890798112572776
C -0.10831363051463662 -1.656254882362498 0.8846897117293572
C -1.3240790989558382 -0.900060212693513 0.8475323638968884
C -1.6039104271172766 0.026746976353071078 -0.05615784346086111
C -2.8684018737008583 0.7646164247772483 -0.03697370763012989
C -3.764385034800415 0.4051449773544167 1.1045161594327761
C -3.6199052521195942 0.5440656485183297 -1.2991608182566927
C -3.1553207530076186 -0.31851925480077614 -2.1859337350162997
H 6.509820457491046 -1.1981212527695606 0.3399354087115343
H 5.899286425292917 -0.384196276581597 -1.2148273629841744
H 4.235302556497809 1.367797058047269 -1.1022955878445255
H 3.6630589795060104 1.8121729776780975 0.5770194534626041
H 1.8303578434177916 0.7327276036755416 -0.9449667841972351
H 2.400982817158438 0.03434987453011406 1.970679122095357
H 0.04080592954657279 -2.6984763235099405 0.839138698876333
H -2.0628748581183305 -1.110573486204801 1.6217318813056805
H -0.893488435455699 0.2602357193815403 -0.8375313804819564
H -2.6958322440966955 1.8752084534201565 0.024517874760413207
H -3.3509836920188003 0.8541515318725673 2.022240221150888
H -4.004936450892057 -0.6541902899787757 1.1826872630960654
H -4.743621450239616 0.937564825168847 0.9258785397732523
H -4.551593006435208 1.0845358825146312 -1.5058131731319933
H -3.681778260272874 -0.4902121286419282 -3.098829901407051
H -2.2432861775079775 -0.8467000001253635 -1.9822737668816417
