35

C -5.066921789853652 -0.05990797752217067 0.19371674155859916
C -4.331669436286227 -0.6513841076180606 -0.73937383988026
C -2.8655266407434303 -0.42219312263653697 -0.8710078640103901
C -2.126041422378972 -1.6923024666743982 -0.6180114625316366
C -0.6590872866395919 -1.5503738918829617 -0.5798469700340028
C 0.13675012387245025 -0.6987437788494459 0.04442074536176436
C -0.3094456129295475 0.3932157190290835 0.9170501553814472
C 0.7605831663478201 1.014165274716283 1.3508806904360091
C 1.9722963922524217 0.39758826669424824 0.8128042528096315
C 3.353610508401041 0.8172803565538598 1.075414560066098
C 4.347956602014034 0.1737924426768507 0.526920527696065
C 5.740274279024957 0.6032490164158922 0.7966330591805849
C 1.583096511430836 -0.6134689617834839 0.0425685310149691
C 2.4694986735556514 -1.5217621987305947 -0.7083600042521425
C -1.7373940820663791 0.7417113135214477 1.2537038202192456
C -2.510051901278766 0.7118759883575425 -0.02033869438475071
C -2.9301273073197915 1.9017416159287541 -0.4292390426387433
H -6.117001173919025 -0.2047520573729796 0.31170128451912726
H -4.573301172596411 0.6159263060040078 0.8842200425735136
H -2.7070711796416975 -0.15910245685466745 -1.9576338859320908
H -2.402991149374348 -2.4497152578572847 -1.3799908709066904
H -2.52082007703308 -2.1177328016580925 0.35245925971797515
H -0.10844243797331954 -2.269555152758677 -1.1667249827478685
H 0.7821039510834458 1.8640782304884522 2.012761253640359
H 3.5571561284139612 1.656960419600201 1.7207913459507944
H 6.442419228105199 -0.24405196730536197 0.6734740567244244
H 5.95570319612703 1.43276125521175 0.062409740130612075
H 5.761048811565694 1.0299050242786467 1.8268034654178775
H 3.209502505838814 -0.9589931252265071 -1.3376236133719293
H 1.8994047002982917 -2.1381337844761656 -1.4314583012303672
H 3.0326922619434957 -2.1938495290386406 -0.020845121375672352
H -2.1223514911640087 0.054103870003168 2.013123624020763
H -1.7128280966258467 1.7662852153896946 1.6758835170912174
H -3.4988259201999425 1.962286255946823 -1.348233334690034
H -2.704198862248488 2.809096067428247 0.15540174460696704
