19

C -1.9789302843698535 -1.4525642808452255 -0.5394968858405229
C -1.952603012997113 -0.9011454851051541 0.6498185139007253
C -0.9224752469718175 0.010529011641527695 1.1634902787215105
C -0.5517025302416411 1.074595167330357 0.19893822829640578
C -0.807448056624002 2.3637133104663013 0.37553138173715306
C 0.2947375287564032 -0.7462765875060687 1.671093756887946
C 0.92810557966334 -1.5581874991619469 0.6088967362287481
C 1.9292875466827744 -1.0027420019654256 -0.058437954412188256
C 2.8681199566331115 -0.25863833760503724 -0.5592059099868489
H -2.8078942860059284 -2.107575110294024 -0.777730485536735
H -1.1782836042082385 -1.2341073287364515 -1.2318173065280822
H -1.3464854809622984 0.5235366749231866 2.0760151998224976
H -0.04034711353844004 0.7873617023427825 -0.7074454001157889
H -0.5265501305604058 3.112602000000609 -0.3413843447896203
H -1.3224655519842645 2.741531760213045 1.2670181734935362
H 0.9911296198467279 -0.02721766518976991 2.1479330145997237
H -0.0628178009705022 -1.4331562365649648 2.458470194903936
H 3.849491087535909 -0.23584738526735655 -0.14102225148092984
H 2.6371317803161176 0.343588291323695 -1.410327940408254
