20

C 4.256982787063215 0.5471217662299351 0.45249767792896095
C 4.622897575613728 -0.7010382673700309 0.20512457104213924
C 3.8154669410904094 -1.509361520403691 -0.6594184883946826
C 2.5255857071131937 -1.4724815709477248 -0.42970129213763847
C 1.2366938262757936 -1.3045577934998291 -0.1945670741827277
C 0.6123954753124732 -0.23124758845246748 -0.899754656443627
C -0.6172573834909416 0.19502885834026376 -0.7465328822783525
C -1.475786543075624 -0.4456075444095135 0.21777401983457859
C -2.723727326883172 -0.1042239555781812 0.4566630056291279
C -3.3825410830304414 0.9808932489296586 -0.24404405381091243
C -4.6339426300466835 1.2738818734608397 0.040576977637023205
H 4.838066743468398 1.197829819763583 1.1019949992620435
H 3.344405352434569 0.974716366409601 0.006338822137953819
H 4.090895194477584 -2.136902739346412 -1.4621148682677148
H 0.8467519772140762 -2.000956953105006 0.49510274098797513
H -0.9230949193400496 1.0343773499244067 -1.378489433794547
H -3.271954886142525 -0.6538720746461835 1.2008672890174266
H -2.8583665637207942 1.5621490456695715 -1.0064995163237316
H -5.128984825042078 2.088206131825659 -0.4849845530673041
H -5.174485419290231 0.7060455472036987 0.7979781671182707
