22

C 3.616263132872189 0.565145461858795 0.17584004171862191
C 2.9024958901959192 -0.2922775471461465 0.8756120051539495
C 1.9954588444070587 -1.2953626074455977 0.2922353159307745
C 0.6771345341392089 -0.6864538535377482 -0.10233046833854782
C 0.3088275748752997 0.5770621388001312 0.02727504291234911
C -1.070220555179191 0.8176026603959167 -0.47138420103524076
C -1.8616878068941642 1.7154081805781611 0.4259292469831759
C -1.6152714153230023 -0.5885008633538734 -0.4812282711617341
C -2.8518708300329214 -0.9792173039459403 -0.31596815677264145
C -0.43310878397851393 -1.4409091905023133 -0.7213919526477167
H 4.2536600079591445 1.2640726025707714 0.6873729396497872
H 3.574682725477604 0.5806834003641703 -0.8979502657523052
H 2.485903346376442 -1.7881355326885846 -0.5521615164577158
H 1.7801534859829513 -2.057586197819443 1.0635756268745944
H 0.9993726358527001 1.322153246295398 0.4666299842701399
H -1.029923516516499 1.1438876959775846 -1.515708972418785
H -2.5915255671648865 1.1057682654055265 0.99143884779455
H -1.227391002229773 2.2926504899122624 1.1341775009286905
H -2.467563218369531 2.3978659949543277 -0.23683911374094627
H -3.6375902617623956 -0.23097903789015398 -0.14419397395649197
H -3.1872452584532023 -2.006670345396388 -0.33290064607567194
H -0.6205539622344212 -2.4162076573869524 -0.23945829784231976
