13

C 3.36824147994153 0.4776330721676539 0.15453836372117521
C 2.1699906537432905 0.05496528444029644 -0.17183364975684373
C 1.0520790407714524 0.23404508139653857 0.7018477778006641
C -0.07318573461649046 -0.3204262234503785 0.3091343047200316
C -1.173700492739834 -0.8423740874627126 -0.19614371622509905
C -1.9200011843237914 0.025887566803448264 -1.048517101700272
C -3.2288378204211114 0.05052210655927255 -0.9625896173155613
H 4.177566950996387 0.3219691537204455 -0.5314289252468932
H 3.5178783921038 0.9681076562213958 1.0945921647973942
H 0.9738394291133488 0.7437964866941347 1.6212514449938342
H -1.3426910164159578 -1.8357562851248799 0.10570345286487466
H -3.796810990681931 0.7045602022889033 -1.6041634380148833
H -3.7243687074708776 -0.5829300142539345 -0.25181477225427806
