20

C 3.6191201260351202 0.6469529466250582 0.22125676560067725
C 2.4031556184060268 0.1519228560601992 0.06826605937915234
C 1.8893928762891286 -0.9367337192133709 0.864034489328947
C 0.6799160335628851 -1.388122094841007 0.6717137244867255
C -0.15262456213755607 -0.7583595750646595 -0.3807493115586595
C -0.8188978747400688 0.5088273214297939 0.10922312156312242
C -1.635644016011652 1.0562553357312263 -1.0462602784227735
C -1.7507989224993836 0.24607869216839914 1.2228712215014261
C -2.768411574467981 -0.6100056325638061 1.1003369726981174
H 3.9867847961753218 1.4606381165104019 -0.38207605406954054
H 4.241767392947659 0.2028215485942225 0.9820727459895344
H 2.506306421545135 -1.379400558324467 1.620457053363807
H -0.893351798532589 -1.4800427889807912 -0.7799642547098379
H 0.5297190765971164 -0.47520014025637225 -1.2092174930356234
H -0.026763809241078292 1.1920493166918569 0.4275513672282582
H -0.9464802468078766 1.608400621235993 -1.7439131694594083
H -2.4436937285081237 1.7169380394359564 -0.6754527808141305
H -2.0079793251680003 0.18327661903000306 -1.616582821028302
H -2.975241874900024 -1.1611857240394499 0.18838055626092098
H -3.4362746085438087 -0.7851111802289087 1.9294575742969156
