44

C 6.669089260380034 1.9461796426729843 -0.6133354740393038
C 6.316728636466634 0.7044162388982902 -0.9099004727891313
C 4.9831529060354045 0.4255639785867942 -1.3209633119568513
C 4.224600191290794 -0.1724143942146427 -0.42111207493144936
C 3.5619205756589314 -0.7501004618811388 0.5637481323733183
C 3.653898761901914 -2.2018237784391137 0.5534140862647188
C 2.894523252853536 0.13455110118087849 1.4385726167927702
C 1.636155971179339 -0.16716118649418868 1.7220147479614858
C 0.4299580979937299 -0.5657466483168027 1.931725634530037
C 0.05596866974083081 -1.4407302183904853 2.9786445494526554
C -1.2433291008332408 -1.6170193677596967 2.867968684697346
C -1.7502019044196575 -0.8236305981042077 1.6956812983192058
C -0.7016302025745059 -0.18645638237225245 1.138724924035843
C -0.7724163534965124 0.7218850269618137 -0.02672834051093625
C -0.10167789338684875 0.19775396901073705 -1.2899428832796218
C -0.8353458687279541 0.5428364724303684 -2.516202116295093
C -1.943989821232893 1.2593603673188853 -2.6665754155875963
C -2.635157330011997 1.8554755171767594 -1.455664112322714
C -4.101319431426995 1.613749837333238 -1.428648711135748
C -4.4105558290430515 0.7382947660768746 -0.5210610089622695
C -5.609201763439684 0.07130359542567276 0.018842822264608185
C -5.426417434151151 -0.21784501184873953 1.4749274739579317
C -4.241947913904598 -0.5826053072084678 2.0129040943659735
C -3.0828365624945953 -0.7048575741336368 1.1505470151381094
C -3.148834584458128 0.3317240945451261 0.11522815923993489
C -2.158314159727805 0.9324552438885545 -0.3782579720553725
H 5.983456975039964 2.7825501811525113 -0.6670293855086744
H 7.685661759468424 2.1718507398488707 -0.29785950301720077
H 4.463563813372603 0.6015498522152805 -2.2158834126329667
H 3.4251626747016175 -2.559785171628857 -0.473971123792264
H 4.654955204859513 -2.5118927559018585 0.9044095604807487
H 2.859302985311488 -2.6137081586189588 1.2126258038004685
H 3.196369227941276 1.0163710592175792 1.9300992836246553
H 0.6444343533152348 -1.926693415061837 3.7693028858751294
H -1.913965480585205 -2.215443229465142 3.4754422647619507
H -0.3076513446261635 1.7072775661797386 0.20449646725647447
H -0.08608592795546587 -0.9090742328227686 -1.1907769515072837
H 0.9678477669636933 0.5097953844503401 -1.3170897115947882
H -0.41610043514135975 0.15803974690944883 -3.4521439986607394
H -2.377503125398108 1.4368923536139737 -3.6217685928501613
H -4.799020696095456 2.1179054025444906 -2.0931140537516706
H -5.749203768871207 -0.9137309833018081 -0.4743161659215311
H -6.280892674194397 -0.12802852090667943 2.1088656957908833
H -4.2131514782779655 -0.7690347407657625 3.0766554560523063
