33

C 6.536493066162987 0.1328997432367779 1.5283212381183124
C 5.442202839009078 -0.12399032691507193 0.8587289353087056
C 5.307195624080025 0.36649461132476496 -0.5034487251418651
C 4.216810289667369 0.11755723523628023 -1.1856173352205703
C 3.130887710632616 -0.6667844489162661 -0.5498625874673068
C 2.2759012484563654 0.14451669785892549 0.31991590131015085
C 1.046503442094761 0.08991033705740864 -0.19181688967414492
C 1.003917057553684 -0.7296363341574279 -1.389874627313623
C -0.13492090391628206 -1.0405458713830809 -2.241471566019402
C -1.3188238496783404 -0.651145307311787 -2.0991750471650366
C -1.9351623934878868 0.1841635260199844 -1.1129490589301985
C -3.387723650354423 0.44912156027871086 -1.3983969971414087
C -4.2807591375116205 0.07163754327290871 -0.5237218974569299
C -3.98043513539191 -0.6014501926964807 0.7362803657255196
C -4.542608909804102 -0.236707622081087 1.876983307034953
C -5.415805254240639 -0.22701115661631915 2.845011678968407
C -6.433419640099254 -0.12101510138543797 3.651712606874132
C 2.257337097109083 -1.174324153271466 -1.5902029476260229
H 7.325139652490589 0.6984103573906206 1.0790704105219207
H 6.642501729254801 -0.22601592344249544 2.5333281248953234
H 6.096990926744998 0.9338055518888918 -0.9591874445902585
H 4.123557909747921 0.4815065154521906 -2.1891453659234035
H 2.6082460469669986 0.674781770345262 1.201363486930414
H 0.23367929763330778 0.622321879024756 0.29215470419661466
H 0.07396528697665011 -1.6987519803028364 -3.1171955492202152
H -1.474291753499634 1.2036994717920673 -1.1592350154615498
H -1.8910492306008997 -0.22093442114404382 -0.07955972330429546
H -3.6909808126813686 0.9364212000272439 -2.297610919168985
H -5.3524679595813875 0.2472757469940117 -0.6952642371927334
H -3.294957170414875 -1.4123545135001165 0.7614942922849062
H -6.9441269982705744 0.806177954072005 3.87199428340226
H -6.804548840877826 -1.0102201173248155 4.141618050067207
H 2.5607524158419297 -1.8188815006462018 -2.414241451622598
