17

C 3.1826551432320898 -0.01859692784872139 0.3906242799117887
C 2.1120975143586644 -0.7080493178237731 0.8040127899070323
C 0.8588761085154636 -0.7745437177896896 0.0401646688645527
C -0.30610729472894843 -0.22045696236868564 0.8479500556212026
C -1.5750105247626727 -0.30251393345269534 0.038248489353614315
C -1.573719075709736 0.4546886293234022 -1.2588860659462706
C -2.503661022456677 0.8315947700133418 -0.08088334685659249
H 4.064672924417028 -0.02435294302803857 1.0167670378524416
H 3.1469408877562075 0.5252012599843149 -0.5505558969087823
H 1.0107079206413303 -0.20802328112413007 -0.9057423440230171
H 0.6574740398109226 -1.832550586105804 -0.27290513830322716
H -0.3762152377980543 -0.8483033977436787 1.762361592195987
H -0.04325017517898981 0.818881660509223 1.1123780116789983
H -1.998532372585904 -1.3202582731168062 -0.0472243945691625
H -0.778063333046043 1.2082820790418969 -1.4525029953549915
H -2.3104402105827626 1.814851283689388 0.40967143782481463
H -3.568425291881863 0.604149657840456 -0.30008667383756493
