33

C 6.8967336919063715 0.4739396063805036 0.5161048393074985
C 6.142070779614194 0.5337195940403855 -0.5502226488110803
C 5.155011423235824 1.5428032246832617 -0.8000824060704416
C 3.9271061671510945 1.106758522868692 -0.9433617802607476
C 2.7060676698157966 0.6088766133133042 -0.9703297035764438
C 2.039537973030702 0.5111662965068193 0.27452057129694474
C 1.6964785255880566 -0.6851024690231006 0.6820261234323809
C 1.2909312574461989 -1.9096044147411908 0.9249346456672831
C -0.009315417846678603 -2.2957415592473827 0.39799541242141573
C -1.1002633721009492 -1.3624708633715805 0.8005878227179755
C -1.8519383188966598 -0.6752802324259131 -0.010842405613988627
C -2.7761088630127486 0.0959441779804681 0.8079635850354762
C -3.722720198265982 0.9377044799474642 0.3691918058023713
C -3.8772976022098264 1.129233752128717 -1.0359880461095166
C -5.082320368898396 1.0260227518517702 -1.5210593768548764
C -6.326599150365436 0.9047494112936167 -1.922207946702526
C -2.4547109306964137 -0.23953213916019922 2.1819632645292626
C -1.4627749897709552 -1.1026324193565835 2.174189285409641
H 7.631936601676051 -0.29399766678379735 0.682128992344316
H 6.7845031074360005 1.2302607063129765 1.2767433385240674
H 5.258058358161104 2.5895158968886065 -0.8867657829287874
H 2.3975561015605087 0.34760032709894634 -1.9483994291091844
H 1.752733897481061 1.2757545130483638 0.9709086936168965
H 1.9946805955397 -2.4714946487018388 1.492721464184832
H -0.0314755157515003 -2.4376530685076276 -0.7016017763626725
H -0.24825351668726603 -3.3168824292573746 0.8186771654670897
H -1.800487953728063 -0.6755970519621901 -1.1073297006084117
H -4.361976532133561 1.4662208315215728 1.0575919563067886
H -3.131499860010945 1.3503233651795352 -1.7668413101448477
H -6.608576452145668 -0.07611289099192665 -2.200533809286566
H -6.884700742382646 1.8025639752084914 -1.914070147494274
H -2.943652513217143 0.15074840226701555 3.0527669258932195
H -0.9987338515213567 -1.5418045949896633 3.0435177754400065
