16

C -2.6669333738731336 -0.9725245059289471 0.10736326263713054
C -1.8349903973715689 -0.14573675533289035 0.7062638348006932
C -0.5080457349633634 0.15442020850440677 0.10789150997270476
C 0.25392644175856416 1.1225097469281804 0.9222141447211332
C 0.15751151680044828 2.418844878461441 0.6680117781379232
C 0.2287237204074614 -1.1000568495105951 -0.02701511526449176
C 1.5291629802771736 -0.9851915419523231 -0.14069655049635568
C 2.824771244128219 -0.8073575827220213 -0.25721524876941365
H -3.6424887022604433 -1.2350977103095686 0.4833644662274297
H -2.3681841301409805 -1.427057245629879 -0.8237341979271368
H -0.6056522008405331 0.5993605114247166 -0.9126517887735598
H -0.4645684873834076 2.8232673333280536 -0.1240975307350685
H 0.7116543313097082 3.1408797061603546 1.258313669714043
H -0.13308439308674025 -2.091698087071567 -0.04665526925362148
H 3.1685950353910934 -0.6968002958509646 -1.2511096390184941
H 3.349602149847471 -0.7977618104981283 0.6588324140829204
