23

C 4.5674136426355645 1.068051841360935 0.182263679202264
C 4.8825414210123315 -0.2219878355790338 0.050012173117078965
C 4.081947226867013 -1.3009626644218928 0.5433640423687965
C 2.9612156380351227 -1.512881197560237 -0.10268360091047314
C 1.7995189063907446 -1.5931019585027586 -0.7314472584237001
C 0.725828550726873 -0.7745909937828581 -0.1907617267043942
C -0.5748428097856905 -1.4221803354136755 -0.5580607453252417
C -1.6583933752263635 -0.8696808553031276 -0.03617569238116719
C -2.566431482268147 -0.08526129472327601 0.477400406798968
C -3.050840240073657 1.0747651846941597 -0.2877274799009456
C -4.575696277937373 1.1415192238318068 -0.2373081306574705
H 3.651508650967567 1.3419434053715211 0.6921911155154898
H 5.262584384770798 1.7811224190382193 -0.23803409719497876
H 4.244934801240751 -1.9627280460362653 1.3526175121691026
H 1.8273006327000214 -2.253881857718804 -1.5511406102886551
H 0.7906191349629248 -0.7760365757110171 0.9163974559503759
H 0.8010632079960325 0.24693357756162718 -0.6141693924140043
H -2.924471324810272 -0.32277029558594916 1.4550944958581638
H -2.60928974000771 2.045508524213928 0.08391363694942794
H -2.738482917415781 1.0109066397724862 -1.3505960747424006
H -4.923228979505295 2.068520965121162 0.2151079435810781
H -4.967211667556047 0.29239744545485413 0.372394282668579
H -5.00758738371921 1.0243946839183016 -1.2653846751526643
