24

C -3.832836558232545 0.2981468849260295 -0.4664580419691991
C -3.3491057226941865 -0.8054869539221516 -1.023593305290614
C -1.8926916898399848 -1.0824769052552952 -1.1337821433665642
C -1.1676632086230079 -0.1547989319280389 -0.2066365870423667
C -1.6145764070170965 -0.3675250959708689 1.2198022842335965
C 0.34452575550842296 -0.4282766478253562 -0.21847658551509483
C 0.9358315181551942 0.5303000577018142 0.7153879277800638
C 2.1935966918578105 0.34302874988111304 0.9903159926720331
C 3.4861507109117804 0.15731747427748566 1.135572736940087
C 4.347639971844382 0.8306456715262072 0.16959224225465452
H -4.908666644957647 0.40766553142786227 -0.4340065123010187
H -3.2267330685427593 1.091226954202607 -0.04476125789811723
H -1.577888441969239 -0.8972538487191394 -2.1795995965054313
H -1.6735236478748277 -2.1197539661698293 -0.831111079871051
H -1.2555236278892905 0.9126678217087665 -0.5135605668759166
H -0.8634147616971157 -0.9744522809373273 1.802929309624298
H -2.5621604942058873 -0.9346784900036286 1.2467893227548077
H -1.7366983674011252 0.6067818926834222 1.7724129841272418
H 0.44593310327116614 -1.4436771523075138 0.22631784070120067
H 0.5012155465834076 1.3584431444216971 1.2054658725810934
H 3.732790152230626 -0.4659771598205071 1.9447896380483243
H 5.3794812400034155 0.425446407220555 0.13744862575047762
H 4.416226265083603 1.9032119409105355 0.4512605124774632
H 3.878091685494919 0.8094749019715887 -0.8423708265994941
