19

C -3.8818242109374745 -1.6642532546274524 0.22580102949770944
C -2.718479744824346 -1.762687961781298 -0.37173524940241326
C -1.6189057202727926 -0.9319667588729942 0.085439452763811
C -0.4496472368754291 -1.011727941974337 -0.4939310912557479
C 0.6429510643733373 -0.17978837845797901 -0.03248543533298909
C 1.8361550961229094 -0.2388616772220141 -0.5990380878307652
C 3.0358691206932202 -0.6280980669518306 -0.8556547062955648
C 4.179413945969735 -1.0846806247791658 -1.3335055379493477
C 0.43544921301420575 0.7287363616650968 1.059793015829026
C 0.11222860596849876 1.9537894878076283 0.7297856540670876
C -0.19858730913252792 3.1604533404257324 0.3351124887294247
H -4.69384692071073 -2.2913191381405698 -0.1268401159658125
H -4.0663438356875385 -0.99454755877564 1.0442009278406217
H -1.7647219730275645 -0.2464764233514556 0.9050429427023087
H 4.659394603447577 -0.5034347501496836 -2.087901218284433
H 4.621363681258254 -2.00855347985333 -0.9826073569058662
H 0.5049903117796126 0.5559993848892174 2.101143456090095
H -1.2508086739837287 3.333362258223178 0.22098229222524418
H 0.6153499828247686 3.814055181926878 0.17639753947761025
