21

C 3.294296780058409 0.596691812659611 0.5802099758904711
C 1.9792695990859286 0.5483549538157338 0.7131082007541854
C 1.0490496342963682 0.2504551279670443 -0.3799097252000495
C 0.1243384724462846 -0.8254018662262816 -0.04059795782356134
C -0.4505858900069973 -0.7046124637458008 1.1956245879762257
C -1.4740937483224892 -1.8437895091781535 1.4366249466714458
C -2.355301845849147 -1.4690627463820256 0.0730634501738963
C -1.9079850200770794 -0.3906976228491109 -0.47113167046414967
C -1.9336783511982363 0.5682480343651287 -1.4728449035234568
C -0.9303055237015547 1.4797394817314868 -1.472866830465269
C 0.14040346985118915 1.526019915499913 -0.5311645831312973
H 3.8864367058485825 0.827073079048493 1.4592803538324
H 3.7213118051614824 0.408525543512025 -0.38048973493411764
H 1.5084415688152872 0.1128910032930434 -1.3757641339796103
H -0.07784521976898999 -1.6462249711493546 -0.6383774135760258
H -2.1725009139270726 -1.6354786521630684 2.1727761010390547
H -1.0657064568446244 -2.7624163798055323 1.1344180996268305
H -1.4073490949353138 0.20689145126239455 0.49777502029544646
H -2.665700757611633 0.6396440409270729 -2.197490509079748
H -0.1451640856146072 1.8067928965767908 0.5239764313563661
H 0.8826688722942356 2.3063568708406614 -0.8262197054390724
