32

C 6.308021581225075 0.045310087764865205 0.6556414266376865
C 5.014197515542779 0.16301716670811886 0.42250888159277034
C 4.35252036241122 -0.8418455373302532 -0.4529913730840713
C 2.946899855970619 -0.25894216425548666 -0.8041178487478411
C 2.7717577905524236 -0.1007641493122191 -2.0717509768427744
C 2.1665875672724844 -0.028899864499017932 0.382167522531191
C 0.8499885463219793 0.5078641800620067 0.4611910687619383
C 0.030655628420781948 0.9184748713618709 -0.44717746126143515
C -1.274748651951023 1.4250794238417603 -0.05100269880245757
C -2.2894776631260583 0.8681019012439376 -0.6450854155067873
C -3.267615213926912 0.1959024275843874 -1.1973412716270102
C -3.7086391436857213 -0.9832185377568958 -0.500798422086109
C -4.652774191805148 -0.9805991849657218 0.42774177135436664
C -5.351645165483599 0.2059845010921898 0.8513050009158195
C -6.287381603242497 0.17018703638129584 1.7801301300993873
H 6.880974698351989 -0.760571200142863 0.22365466915179508
H 6.820144311704891 0.7534232452869472 1.2838295762909313
H 4.222489978782064 -1.7722987072291583 0.09657076241535685
H 4.905557348259959 -0.8921173886945891 -1.3877655254969494
H 3.598610430872662 -0.3805990486845508 -2.764774237079461
H 1.9076834306566819 0.27380160505401036 -2.543776358029569
H 2.850121496711011 0.6178218166151714 1.0706452900897387
H 2.1984373125805354 -1.0374358812699533 0.9638475299839339
H 0.480909880471367 0.5723792516369511 1.5579055546300924
H 0.2331754260453441 0.9185680071310364 -1.4774385104104557
H -1.5152105979788233 2.1769555099089186 0.6491165581198723
H -3.611374369964581 0.6204961614412327 -2.1076880805689413
H -3.215223743850297 -1.9148245800322128 -0.778944098936324
H -4.914576090308648 -1.9187875745787426 0.8942783282630082
H -5.096779059522965 1.1709595581639305 0.38563042666767167
H -6.531383490411197 -0.775052015138167 2.230711650705306
H -6.821904176896691 1.0416290826112806 2.11212786806889
