30

C 5.590238090944529 2.3262588061337226 0.11447700187043856
C 5.5710702803452135 1.1250724935053777 -0.37955593164651896
C 4.435145111360779 0.25918182430383346 -0.43200448323074453
C 3.275367741576036 0.6256578283955021 0.034160492636391926
C 2.130230972981927 -0.2943675318512312 -0.03828646051563636
C 0.9945628736607233 0.10485948041954636 0.43496166190926855
C -0.2471096886796492 -0.6392712889267597 0.46178946669236837
C -0.17636306064515406 -1.8151392794334935 -0.04565822564727516
C -0.16388966581811634 -3.018276033454332 -0.5518018083851689
C -1.4492872079765604 -0.14823107019099455 0.991264161251303
C -2.4911918504380948 -0.9285738706437646 0.9466439706361854
C -3.5453500137818543 -1.7173891609810699 0.8043672127401118
C -4.27774985842627 -1.531184611991872 -0.4260293513250657
C -1.711857966496116 1.1188856946042096 1.5887885296358544
C -2.136154424190078 2.06701427043549 0.8152341123455772
C -2.5531639308380565 2.983789934351334 -0.02453765093047776
H 4.7476255176379505 2.8313285146005587 0.5524297737932461
H 6.544415775358396 2.850257427699034 0.0740202603426681
H 4.527649525156181 -0.7363630348799569 -0.8707753636400878
H 3.1574058685343322 1.6183209341738434 0.4786256896373153
H 2.217435345865428 -1.271750587807946 -0.4680757306734911
H 0.07452464039323646 -3.7782343520714985 0.14754434318206572
H -0.39271783975658986 -3.0623739069183418 -1.5783324455854248
H -3.6794085939014365 -2.362378378986929 1.6229188934813545
H -3.574821151986759 -1.6797802573583147 -1.2901736623666749
H -5.072240707262002 -2.316080369905778 -0.5168744281694184
H -4.78454853072797 -0.5647173511049053 -0.5499564598726552
H -1.5933807801365614 1.366358320089964 2.614962957958891
H -1.7980763685169607 3.562615600529879 -0.47952941595978976
H -3.6183601042366833 3.024509957264731 -0.14028576853409863
