22

C 4.91751174599376 -1.2536190762221626 -0.24706850774427763
C 4.305515499096961 -0.720353321863134 0.8027227006103176
C 3.64255405643526 0.5535905116088793 0.8059814750672951
C 2.354272384318845 0.6151850045419115 1.0836940296298232
C 1.0655737898372493 0.6111522432919486 0.8953325744017284
C 0.42696500644987634 0.31201674257346806 -0.395036010366354
C -0.8687509252078015 1.125724586463768 -0.437508809676743
C -1.7034607110861322 0.7040641294710749 0.6878359935621624
C -2.8681431645088797 0.09298657617406646 0.5844883077484607
C -3.509437786344102 -0.2594952736858156 -0.6513777111395932
C -4.673856466455932 -0.8687827612536162 -0.6326661544435357
H 5.37910667058017 -2.2136987401076103 -0.13030671219078585
H 4.922623102899389 -0.6870545554645101 -1.1858179884743
H 4.155370715564807 1.4663068439824383 0.5864397165603986
H 0.11366665002266202 -0.755151875490321 -0.4735510390200274
H 1.0647004020855513 0.5188274821867499 -1.2577773161873609
H -1.3677824018616958 1.035384427772885 -1.4254379176696004
H -0.5677542950271768 2.183573290284201 -0.27472458143856116
H -3.3536992927403895 -0.14849920304138164 1.5188946832893169
H -3.0966367552481557 -0.0567397065452673 -1.633433218409125
H -5.134915889279422 -1.0973183667712711 0.31116556754019825
H -5.203422335524377 -1.1580989579062866 -1.5235179616274985
