13

C 2.3992825573762273 0.25426684591725635 -0.2534557590124985
C 1.2193612727425187 -0.18231478152164074 -0.5806922179200825
C 0.032857154246418274 0.024627160530284485 0.3057553520231411
C -0.9607572757442921 0.9407550794603737 -0.2012075002821316
C -1.8614675549660764 0.03149617795100855 -0.2797068681296427
C -0.998233065834572 -1.003437675851952 0.2131008045334863
H 3.237099719445276 0.0967643959547559 -0.900813929044801
H 2.5331204961069345 0.7806247304232573 0.6809431814786647
H 0.3161700236852982 0.28120161355181617 1.3597201631028928
H -0.9830550593278331 2.037125049031311 -0.4482301865857742
H -2.913219927663818 0.04620335674677326 -0.6071513418457012
H -1.2572335038762574 -1.4586600570375332 1.2111614909528394
H -0.763924836189813 -1.8486518951557207 -0.4994231892703811
