25

C 4.790776769431708 -0.5111046575060746 -0.43163239295829836
C 3.970994321727122 -0.7911583340302979 0.5486767671778214
C 2.5682909009569053 -0.43536718975830857 0.5445617427193046
C 1.991493230431584 0.19877683995899265 -0.4395415353113964
C 0.5459810237496685 0.5648881605733568 -0.4433133148678639
C -0.17016479189071462 -0.11213247807818187 -1.5653854919921624
C -1.5199559309492892 -0.538970654595121 -1.0532043450115938
C -1.6077993794043848 0.14513754323322112 0.2602546684526536
C -2.690919670312104 0.637170968810366 0.8123718162045973
C -3.983981740437985 0.53247422877382 0.10849627940095993
C -0.18989427768084555 0.13405389891962383 0.7842278658762168
H 4.541855815814261 0.0034753884334762725 -1.3414775104735064
H 5.836869652602145 -0.8368511461612137 -0.30691943520418963
H 2.0070988212137633 -0.7385005886928487 1.4444881124351368
H 2.600692195087668 0.4721521872463362 -1.298987188540044
H 0.47743627767507174 1.6814164162449188 -0.5988772161438436
H 0.431964675302697 -0.9864202247384845 -1.9050647396453024
H -1.6125999561341915 -1.6150982252858903 -0.8766054469302573
H -2.283492086587849 -0.18258956911633656 -1.7739618904827301
H -2.627751714285313 1.1132227198736595 1.7741975472367162
H -4.810913208621157 0.24957848631521143 0.8210441740609618
H -4.27356004022158 1.469343873885326 -0.406067769830015
H -3.9906746654671768 -0.2728833701406701 -0.6603103446092096
H 0.059811841784798994 -0.9468543831452151 0.9577434523851681
H -0.061558063784778995 0.7662401089803031 1.6592498881403424
