28

C 4.589638934666116 -0.5287642682366973 0.8149551663185639
C 3.7228461756687663 -1.34605534771621 0.22773936754479587
C 2.2800153054683356 -1.3448158279003986 0.46337799228076004
C 1.5033965891534877 -0.6440668722873147 -0.6371509087035362
C 1.9593023654164776 0.7805123334707011 -0.725591728858089
C 0.7520361219031079 1.6086077279472242 -1.0142634562168427
C -0.3813921019481654 0.788522043638366 -0.5505765182961598
C -1.6931535394302784 0.7968877511417808 -0.24820744759673796
C -2.499179684439641 2.046702842048185 -0.3670089592419733
C -2.104777058920897 -0.5015969646355711 0.16550541385008227
C -3.3315965550132614 -0.7389470979306902 0.5074683265836306
C -4.504028537171234 -1.2762364664085253 0.6691521839396737
C -0.9364270221431941 -1.3464546852463504 0.10125299518273127
C 0.07807217113946742 -0.5927887028095666 -0.3188565958903704
H 5.643054090741658 -0.6030728048159439 0.5775225174610608
H 4.27472296665021 0.20677274259207215 1.5214259074099838
H 1.9325979119380776 -2.4122916176653035 0.46711778440745133
H 2.0583936668490734 -0.9104292790143197 1.4572192596967657
H 1.721866712699536 -1.197500624962529 -1.5829325196259068
H 2.4365596779507612 1.1436931443672662 0.19316202436437255
H 0.7461034040385012 2.587037179672834 -0.49938758882444484
H 0.7184829717601472 1.8234803559101527 -2.1018074795303217
H -2.2087439850479282 2.580202133713242 -1.3091783470887703
H -2.3434538751268734 2.722383283318712 0.5050144182543216
H -3.567255579151938 1.7090952766493597 -0.44475985122631306
H -4.823976062585793 -1.2915812797336814 1.666173878693104
H -5.0917053895099205 -1.6652481900703742 -0.1057180895383176
H -0.9313996755544109 -2.3940467850365317 0.35669538599559814
