24

C 3.796387857628198 -0.7667312227463818 -0.6579330886985393
C 2.642770032906681 -1.0121449610064237 -0.047334479381794206
C 1.7857276246462834 0.13632037596268515 0.3572194551843547
C 1.3212380371952803 0.8443617041286866 -0.9000022508382801
C -0.06672682043020765 1.3324083908862343 -0.48082709865842377
C -0.6386977981502917 0.18357559344333457 0.27817022741125486
C -1.6809952290304897 0.5777292116068764 1.250108918925275
C -2.972683049534284 0.46431715590509864 1.055186222709842
C -3.5801015869728823 -0.0857498242311111 -0.19139397557998672
C 0.5514881793596214 -0.31874271293349304 1.0699596358734975
H 4.441115111801382 -1.5742699273485374 -0.964343106996808
H 4.121148759606761 0.24439593703621937 -0.8645626323277784
H 2.4317468526897605 0.8027785366364597 0.9774055307727071
H 1.2537838494932472 0.16047152209196613 -1.7623282890219687
H 2.0077353853334228 1.7050091681207737 -1.0919757609672793
H 0.025851870534775206 2.21720518588743 0.16083080248074788
H -0.6914098765271208 1.501763227412843 -1.3822471889780312
H -1.0047232256886527 -0.6167077885566398 -0.39572781075257785
H -3.6326707842116783 0.7917170169617024 1.8514853990337943
H -2.95518533246942 0.29056692185015665 -1.0464139334854534
H -3.6249100779673236 -1.1933904744504442 -0.17698664441258127
H -4.607106201282019 0.30302575103212326 -0.34914156196402707
H 0.5123132915785151 -1.4168931899121207 1.2185494648650197
H 0.5639031294906844 0.1490362894068251 2.09230216480698
