30

C -6.9224949575488 -0.744723035481128 -0.6410088798046467
C -5.825446893967819 -0.8635065038926873 0.08756253023289955
C -4.847882150962771 0.2291254906424399 0.1199686367374839
C -3.729211875610921 0.12307928748326237 0.8551178393777645
C -2.8141873048834163 1.1964995386231778 0.8593653690955365
C -1.7723238688038077 0.9802388006804472 0.12262927333004417
C -0.7706105537444252 1.0308121659856757 -0.6922764217601141
C 0.4213923770512736 0.4815800031602469 -0.151601956752106
C 1.6720330739253275 1.320016797673735 -0.237593410362169
C 0.5450858836125179 -0.6935157388699674 0.42082126853226415
C 1.7636582726922767 -1.2073099133420824 0.9515231879490249
C 2.624120190678224 -1.689173533473158 0.09947286368895207
C 3.4910267267102024 -2.002901751080488 -0.8442218855598608
C 4.33800979376327 -0.9774284549141193 -1.3342782424357564
C 5.119798735366634 -0.32765252190405514 -0.4958615169856341
C 5.825815897551278 0.20946144565201105 0.4750204811533691
H -7.64257411603146 -1.5408309571504728 -0.66936718718542
H -7.096732066469316 0.15237359369593126 -1.2087243206242388
H -5.041273523924559 1.1223159711329314 -0.4573492518858818
H -3.5967186828671256 -0.8150551073055851 1.418529700835609
H -3.012494811820883 2.0591507850262607 1.423345931818191
H -0.7663353556844592 1.4218522694933913 -1.66496375232492
H 2.1148123470441202 1.2577555483078153 -1.2482028771547296
H 1.4482208676992903 2.390160211588864 -0.04953331629068856
H 2.4067148817385116 1.0040220870020542 0.5270345058818844
H 2.0667843871539078 -1.2485266746067225 1.9582672629459406
H 3.4210550611526243 -3.0280177989781536 -1.1104741610115525
H 4.457778777900159 -0.6173133959717825 -2.3391927645904964
H 6.758878873372174 -0.258842566870697 0.6504351427663154
H 5.363100014907974 1.0363539576923269 0.9482672104156552
