18

C 4.163012662830239 -0.7689772681667166 0.16237364912886806
C 2.911842429058564 -0.8039016978147023 0.5808310103725305
C 1.8347097490515356 -0.11210948578167976 -0.1169599989391034
C 0.6024875203701442 -0.17814857579641535 0.3415491704038783
C -0.45000574661269505 0.5460164443639693 -0.4109281076791537
C -1.7812725537947245 0.3621657280180979 0.18846843560919893
C -2.4597950589667272 1.4108650717106854 0.6160196748889447
C -2.408046863787072 -1.0049878201306113 0.33383239966189504
H 4.8869979202123055 -1.313340002389678 0.7477277094054557
H 4.509831380124934 -0.24205250625129676 -0.7117575207181649
H 2.050003281643496 0.4518619335689378 -1.0067835010205732
H -0.4019369233769091 0.20902121976016233 -1.4703928649955729
H -0.20068150698925835 1.6115923026867967 -0.41115351965549957
H -3.441663559130657 1.2696465677931934 1.0574993784056177
H -2.0144960610629883 2.4066481836689992 0.5153495550815884
H -2.5503707084170397 -1.1766974258946605 1.4128288293278803
H -1.816771577792942 -1.777214043316138 -0.16779693973236542
H -3.4338443833600416 -0.8903886260290055 -0.11664848851454657
