15

C -2.8393759843107222 -0.8525245266437836 0.23402598472285335
C -1.9977494036151557 -0.5300617994772557 -0.7322485036287094
C -0.5599016993851416 -0.3296902738606515 -0.4128189020059676
C -0.32794622651675326 1.130628464491531 -0.1255796090708055
C 1.031324487923669 1.4765889794217857 0.20045811921947496
C 1.9469595158510047 0.5497143878063876 0.24102319755945797
C 2.7470397098099526 -0.4814556553697698 0.24235621207196434
H -2.460293265174483 -0.9632163661953858 1.2373540424982832
H -3.885162337666851 -0.9919969192687141 -0.033560814837395
H 0.005855143521016989 -0.5672360324682654 -1.3543474930452524
H -0.22597210784820376 -0.9859635664733923 0.41152045780937074
H -0.8672167908488927 1.785985471242758 -0.8113218707547584
H 1.3833829580756254 2.4388133231604545 0.4195966621530437
H 2.837101779517588 -0.9843687972604434 1.1779704005622613
H 3.2119542206673746 -0.6952166891052798 -0.6944278832538153
