34

C -2.828604580504718 -2.9093707906257533 0.4270218850398242
C -3.220029565512649 -1.6841887397145106 0.15483591373420336
C -2.3247389463847856 -0.5610055093751097 0.0014946033578672152
C -2.6854532161053513 0.6820810412813817 -0.27188668794670945
C -4.041427548775998 1.10394055359292 -0.4592755918808477
C -4.592823149621009 1.7878652462887765 0.5079030931979324
C -5.051666189702567 2.467038517290624 1.537076009384746
C -1.4863254908684405 1.5573287541372576 -0.3529932732089161
C -0.5117205250899272 0.7953404583167759 0.5235086326586377
C -0.830538268023957 -0.6333390987096287 0.13049722068696734
C -0.24677351294850508 -1.079351751053948 -1.0908508324373307
C 1.055128262589942 -1.1042887642538346 -1.0390110804840316
C 2.3149778688038136 -1.4107133454232994 -1.1148962749980016
C 3.099250094028986 -0.3297274939820034 -1.540352900635108
C 3.9469438508409915 0.27934729453015167 -0.7070520062628518
C 4.063373222008849 -0.19622895302562987 0.7003289328608627
C 5.530853709042433 -0.2550425592522103 1.048177865572243
H -1.8018931859170066 -3.188713565966647 0.5609765549964852
H -3.564053836109344 -3.6945871712079588 0.525806266221303
H -4.681682569297614 0.9391468142430092 -1.2889596761979731
H -5.514672953297824 1.8754088944764278 2.2825446134453355
H -4.893989927540575 3.5125096010913763 1.478548376093323
H -1.0430660514517511 1.575420264161135 -1.3698290500077144
H -1.689094895925152 2.576912500227995 0.04231946438253975
H 0.5364047114202963 1.059830126119506 0.3252691774937241
H -0.7931590946780745 0.893246626908432 1.5934047087015917
H -0.8273433014672592 -1.3530109625014048 -1.9292999428846511
H 2.7453447789197627 -2.3434120610861453 -0.8942044895222377
H 4.549656331053564 1.1128542992307024 -1.0403740935543717
H 3.507707651795883 0.5062362693207713 1.3772757765102273
H 3.5529746010200385 -1.177793700154969 0.8122967318822888
H 6.181376774099241 -0.061965632686393 0.1739022879281882
H 5.7591297534169605 -1.2598178273094067 1.477776777473679
H 5.785935200181934 0.5180506651113027 1.8277952144281389
