27

C 4.681381723116347 0.4805939030187272 1.6849466739124808
C 5.188326451867309 -0.19638171468103666 0.7631453877316579
C 5.048925119330415 -0.7398238543276474 -0.49153516922842905
C 4.052823768761349 -0.6932257215878287 -1.3336462134693527
C 2.792070977217472 -0.018694670819249085 -1.1270772320016385
C 1.8693013692450446 -0.06898049233932087 -2.100388233039001
C 0.6065226032593322 0.607968472994836 -1.890736872078785
C 0.023185978461365313 0.4949005507794648 -0.7345702073245726
C -0.8093623125781092 0.23684623277035943 0.2313519913336658
C -1.6466639959335683 0.14328762153544866 1.2299178958480357
C -2.963441270326667 -0.5083509334167532 0.9964199117214743
C -3.8598673601527262 0.4521219489796863 0.2309333207648838
C -5.184183051539006 -0.25173198470205704 0.017025726710348184
H 5.225525000416379 0.7003726597234902 2.6518761112479625
H 3.6701274729308353 0.9179988461190625 1.6364262823353555
H 5.926499726808127 -1.3431260820333681 -0.9118853415255264
H 4.139218122613736 -1.2086450576475707 -2.3176806622790207
H 2.5281971498189337 0.5229765523217297 -0.25593471386353606
H 0.1998193428402646 1.1818070306978123 -2.7084624589372868
H -1.3513616517900688 0.542916051876854 2.1886463257313267
H -3.480117354001149 -0.7898805614496155 1.9124968825392792
H -2.8434254272068182 -1.4071803388260795 0.3430084103406063
H -3.416881455338745 0.755583603183596 -0.7258915550649954
H -3.9776914675512014 1.3600652313188548 0.8545533939241542
H -5.877454334408357 0.4098360832222527 -0.5627973626798283
H -5.603825369116986 -0.559684544927661 0.9853817080731297
H -4.937649756743653 -1.1858023050663975 -0.565524000722408
