15

C 2.798001532644414 0.731731464823914 1.1451618054668846
C 2.722498797712229 0.6705927901659844 -0.1706509607803383
C 1.479748162491888 0.31439420669969187 -0.8247187101648004
C 0.3978529370560525 0.04334600139464731 -0.13287647982167602
C -0.9006693098939498 -0.32474570681275616 -0.6840707733905664
C -2.0908442303876007 0.12364307581308008 0.19337879904086097
C -1.805837511525628 -1.3045003148890493 -0.06266593147256212
H 3.740912869332171 1.0003292123780159 1.5880227873279256
H 1.9282537488823686 0.5149560115353733 1.738421318737892
H 1.4113395895907455 0.26250319580028414 -1.9032181055827786
H -1.00704738594563 -0.1855697163308238 -1.7769249767119732
H -2.8515041836552264 0.6934679829165814 -0.3576480292138943
H -1.8755965891157456 0.48915614818449615 1.200737137171366
H -2.538168393371488 -1.8276344542750342 -0.7082424296180472
H -1.4089400338162401 -1.9169449901215145 0.7552945490119367
