33

C -7.47501902939552 0.4263731845634697 -0.33595568288449085
C -6.5631511255380435 0.7411659278598638 -1.2081739716479882
C -5.381841713894048 -0.0051626074397085765 -1.5133872718761083
C -4.620139642420428 -0.3292643108065168 -0.49619015187155835
C -3.885209480268821 -0.5322700374957985 0.5655272406773134
C -2.935157626630774 0.5068317256013538 0.8758673662072088
C -1.6489655174831606 0.24656271042506117 0.8326604468782821
C -1.201586166467341 -1.0783383750737534 0.4745375680935244
C 0.08579397436409812 -1.3310524143076032 0.4334601289223166
C 1.0773150165287988 -0.27087897313793863 0.7505989494817202
C 2.176882626890616 -0.756476925206114 1.591118502091482
C 3.2938764639990845 -0.6486067223846984 0.897661353877035
C 3.045934429496058 -0.10286287789197583 -0.41469357270642354
C 4.032158691238669 0.1734966069603674 -1.4931204707487231
C 4.769446209685764 1.3865481906116792 -1.1542255549637837
C 5.813737289161009 1.2428165785770204 -0.37562996615963384
C 6.847655055893966 0.9974218291222201 0.412178169386868
C 1.74535431110969 0.1225039381041098 -0.5105899539732167
H -7.373901478163383 -0.47778602724039826 0.23836898054104702
H -8.32483473255428 1.0722731827019631 -0.19427625340810548
H -5.009750229531795 -0.34691180025763996 -2.4463552853754
H -4.0818365310265925 -1.437059767171412 1.0667269628324887
H -3.2531640881335253 1.5223657950795433 1.150935777076763
H -0.9417309716260143 1.0531593363759664 1.0728761738256127
H -1.9249061469690776 -1.8357037289833273 0.24764254408885625
H 0.4625435201831879 -2.3259214224671863 0.16546827659484564
H 2.120592280008065 -1.1479506827615953 2.619673126515373
H 4.291058747520624 -0.9361053999102582 1.2664120133196444
H 4.7000187147510495 -0.681377908625463 -1.6631323559562037
H 4.579496037473143 2.3820761953814826 -1.4513028623911814
H 6.624039492529184 1.0412307576975188 1.4420820009465531
H 7.744207788120153 0.7931824119817049 -0.10627931028077266
H 1.2110838311500143 0.5357216101182538 -1.3752568109863499
