21

C 3.288283408086841 -0.31338835662442527 0.7828443040979299
C 2.3568738986454596 0.015537181577304547 -0.09036871858227323
C 2.6294671312497893 0.5973813957275884 -1.3811686081629915
C 1.6355698524059008 0.8923362163607246 -2.185174303445088
C 0.27282459305025075 0.620336748577267 -1.745021772201152
C 0.02325766339495767 0.0885294434714669 -0.5651666691253493
C -1.3545850786763247 -0.17540338673535294 -0.1453808947094592
C -1.599480927610454 0.16432957127403913 1.3218700731639885
C -3.063785775974598 -0.16538367575349114 1.5908295693927754
H 4.318348383141698 -0.13932917604831485 0.5220980838516435
H 2.971285930704044 -0.7418618115118916 1.7180357220857028
H 3.6644733230998967 0.7932270027490915 -1.6909129582047586
H 1.8149002860992238 1.3282962514124794 -3.1556309532913907
H -0.5873990802985655 0.8504520206261669 -2.383588483177635
H -1.5590588460725083 -1.2831999362814845 -0.21988355438640192
H -2.1107876571042383 0.3835249495390681 -0.7492068561423183
H -0.9443473979054839 -0.4601971553949258 1.96748519944519
H -1.408096631206679 1.221411672618644 1.535994305866217
H -3.194021409352288 -1.2480378671403043 1.7655742071481215
H -3.477114896736565 0.4524032124417779 2.422187848815867
H -3.6766067689403408 0.10731399960506871 0.6845844575615071
