19

C 3.7473314617801563 -0.23254968138307783 0.6147896592131702
C 2.624107750316729 -0.6786730876396025 1.1496714296168062
C 1.3207201019203567 -0.3742385472264644 0.616810749264029
C 1.0763200659250527 0.3696597095702802 -0.4467839177815387
C -0.35695409360028074 0.48084525229884567 -0.7191702790684055
C -1.1398932501909451 1.3967529705124373 0.21773728256277636
C -2.0773683423311984 0.26212480839495733 0.42338172286636133
C -3.3506769791989885 0.10002216980326734 0.7521067575400778
C -0.9514689951560744 -0.6522103833332562 0.09478607883904556
C 0.04185901967249658 -0.8562424749417178 1.1907314234390842
H 4.690547036972536 -0.49005911276615505 1.0525978346543117
H 3.70222776264837 0.3957950220593021 -0.2705072102221917
H 1.8585909110307444 0.8302484268932492 -1.0294779711998208
H -0.6692901635078923 0.5224315121607785 -1.7705221328230518
H -1.586465739346286 2.2828947806291047 -0.2794595603977498
H -3.9871089557300827 0.9555476501372246 0.9499678732636601
H -3.8137810847300564 -0.8710522168435442 0.8389830388318097
H -1.2305169201275676 -1.5490029372678167 -0.48779519252707043
H 0.10182041365287792 -1.8922938610577171 1.568569532338621
