18

C 3.432669609098544 -0.05613193320276274 -0.16577624294216545
C 2.559115104192146 0.4475949239327836 0.6466734727377683
C 1.159149588965612 0.2019415598966531 0.5277705783471898
C 0.6261970447617682 -0.5433188477432241 -0.39699789312267997
C -0.8288714180138332 -0.7822432916190816 -0.49818037212586497
C -1.5148705812217327 0.12689928016967633 -1.5337505651937475
C -1.7556005625125664 1.105740237651739 -0.37356858993222597
C -1.7191624390919988 -0.13519684916789054 0.5157518944159732
H 4.50636619011237 0.117914498148192 -0.09395725842544991
H 3.1332979983061566 -0.6884056241138655 -0.9735503308889485
H 0.5053476136105988 0.6662980977361357 1.2518580986824128
H 1.2317437065711052 -1.0494996740653553 -1.1722295608408606
H -1.0656863778614059 -1.8552897555343917 -0.6873653556414417
H -2.4707188394967603 -0.3585377727460878 -1.8177594587708703
H -2.7580055541714357 1.5635277740531364 -0.3722360289420444
H -0.9588197923735234 1.8371830079848468 -0.2265796764779025
H -2.7336202935220273 -0.625100530135288 0.461954408198324
H -1.3485309973529522 0.026624898754777342 1.525496890458395
