38

C -5.272919866650871 1.6748334238194342 0.12458553299311279
C -5.7294411304763795 0.5605612650509598 0.6526110869588959
C -5.393698059058592 -0.7786663073800691 0.09502298126193945
C -3.9220180422266324 -0.8171845093039524 -0.3377482366123867
C -3.030380698909982 -0.5400366276843194 0.864746871665425
C -1.600364716938472 -0.5624347903832829 0.49428651580321825
C -1.2144393818349806 -0.7968260955680326 -0.7355830761234002
C 0.19672580439771048 -0.8360041241054987 -1.185374319045277
C 0.6003934744727164 0.5153262148713835 -1.6319991084187273
C 1.6790318417374837 1.119923610649418 -1.169229402362418
C 2.5878442050115082 0.5563101745491135 -0.18815022777462362
C 3.7564081570586643 1.2887583422793756 0.2706393579143139
C 4.180452474264154 2.488454497956068 -0.07744294540248783
C 5.426772074730674 2.8537382856716826 0.6410254736563652
C 5.671231917521767 1.662970145079124 1.4775106214468166
C 4.719269995639584 0.7881191314218206 1.2570269563578633
C 2.3051366970489013 -0.6744526074326819 0.28139348388677315
C 1.1371446349794596 -1.3410277415828415 -0.2130363897597128
C 0.8818980458926432 -2.525933768379074 0.2520470964139781
C 0.6831972518963241 -3.7318122896658985 0.7477606209245867
H -4.635045325331565 1.622187509116904 -0.7394034146921361
H -5.536994657790614 2.6201180605243746 0.5546652367417046
H -5.5637384877383935 -1.5877087429606247 0.8073968863899251
H -6.058967451190865 -0.9344338499778003 -0.7748776858255184
H -3.679638743408914 -1.7971824010826092 -0.7703273770962888
H -3.354145464283033 0.4511695857713865 1.2578189478314294
H -3.298701684747062 -1.3005286758491763 1.6255586610139614
H -0.8627140086109552 -0.3815392091368038 1.2555605271835175
H -1.9644760561659558 -0.9779505664632918 -1.4980484496995439
H -0.009504686678497309 1.0120393329976447 -2.355649952097784
H 1.9566685692719303 2.1298243950934688 -1.5207769332211658
H 3.694613472144562 3.133556472573289 -0.7913978715433045
H 6.230115840857443 3.0236332912608845 -0.11183973066805714
H 6.525123687354423 1.585086268622716 2.15057100127451
H 4.668713294824012 -0.18533466127070938 1.7560624125000655
H 2.9867785713791575 -1.0895576089858185 1.0129880300478495
H 0.09762120960440218 -3.727935083816921 1.6179248587813087
H 1.142047241953584 -4.50006034627997 0.19310899598424625
