14

C 2.652940335767263 0.7149194440300805 -0.11925157670286635
C 1.3965272990136195 0.3639810071949244 -0.015255470400754397
C 0.9812283589420466 -0.9512570871643224 0.4934077128853656
C -0.28412025773926874 -1.279905119003908 0.5883271311007275
C -1.2688543935468606 -0.3120719571285132 0.17827135421953416
C -2.623983397701026 -0.021564588753955574 0.02583259336679275
C -1.69033996118109 0.9995602519753286 -0.3521433860236541
H 3.456394448895827 0.05235622997521769 0.16503357695514642
H 2.899378967528419 1.687170889719861 -0.49691471000431703
H 1.7252527333527192 -1.678217799719662 0.8015314708604921
H -0.5478620877056445 -2.267967561274662 0.9717935803993057
H -3.6055223848885127 -0.43924258046346887 0.16385074133351846
H -1.5091929659940255 1.9159583768033 0.2650185885772519
H -1.581846694743414 1.2162804938098484 -1.4370211343962813
