18

C 3.2817872191225836 0.6549241127699343 -0.3511150573604232
C 3.0688916759190414 -0.6235828985927084 -0.0548495120195561
C 1.9149938354981846 -1.3485240218620491 -0.646750010044197
C 0.695432968248559 -0.5202754990540928 -0.6193032117732974
C 0.5894480194946443 0.4362528928312081 0.24167337739594422
C -0.4878880257800852 1.3448802241945765 0.437692684256447
C -1.5492788608462487 0.9067705050408278 1.0635346362836449
C -2.7414872563875985 0.4198434463114819 1.3690004351646703
C -3.546967136022168 -0.22138164635563243 0.3044084043717142
H 4.138969056563957 1.1232995736572577 0.11343183770540706
H 2.6342225342231522 1.2122820777321779 -1.0248134228929964
H 2.1804480790824803 -1.6937386694310865 -1.6649868077650405
H 1.7518539147090335 -2.2504963714020323 0.008990651895646944
H -0.09480912398422639 -0.714923280707789 -1.3114106569427233
H -0.4647244355958923 2.359271528935924 0.09409515123500373
H -3.36348048027833 -1.314692187292204 0.23438927010117344
H -3.3816751699808725 0.22818650228623386 -0.6964467938206436
H -4.625736813986296 0.0019037109379795361 0.5546813217848006
