47

C -6.3388910227303885 1.8592292569498605 -0.3603770555779988
C -6.029082931560737 0.8571233032207185 -1.1602095147875937
C -4.7152876772568035 0.17213042394676453 -0.9693275679675336
C -3.843686553583977 0.45414067951974146 -2.129394309286897
C -4.243628772441273 1.2007640978307028 -3.127517639571807
C -2.4901314025906234 -0.13302544956673862 -2.139993486809449
C -2.075760618102983 -0.8845961088499317 -1.1443345704501018
C -0.756778843696392 -1.5144921191563117 -1.053372691957012
C 0.2109057341381043 -0.8608871128268901 -0.17660609087245266
C 0.25340624947118795 -0.5031553595441287 1.3069301849259565
C 0.6458060943579074 0.9052404023439327 1.4007279532013985
C 1.737676286501431 1.3466282484158534 2.0122348886195507
C 2.621704744947512 0.3710787472208008 2.641683081502427
C 3.7490576064999943 0.5206677872430027 3.303922814961987
C 4.452607526779529 1.7288425527028786 3.6048518896496207
C 4.5916606225030385 2.587750236302741 2.6229492566026607
C 4.68359991361363 3.389030774914964 1.5795279056314948
C 4.219081710957162 -0.8172337560556587 3.721150337368066
C 3.3640865004240084 -1.72882892716444 3.299342919852327
C 2.292795112279806 -1.05744521104615 2.588049776644892
C 1.1936524007982292 -1.4179126492377312 1.9640177035365525
C 1.0592201282928726 -0.6824118548342163 -1.1405515961929718
C 0.19872590591794048 -1.3107569670804886 -2.1304268736359813
C 0.7963976689098398 -2.5587573223670557 -2.7257768790694628
C 0.6008719694269761 -2.778276574024949 -4.007584584880256
H -7.310572659057606 2.3443199742703276 -0.5231933488685732
H -5.6726214367904575 2.198335721971452 0.42639799235250786
H -4.84621215932638 -0.9340843971484978 -0.9015597210859181
H -4.209663900290676 0.5151038537355236 -0.04287005669913396
H -5.2422351571674906 1.6440010465785306 -3.137219396591274
H -3.558793897595552 1.3727259442698736 -3.952338758340202
H -1.8950954981630215 0.1036657237774963 -3.0123641173544793
H -2.7844362278828596 -1.048986862708131 -0.31494911140536447
H -0.8425194942282296 -2.620930878149895 -0.7510449255760844
H 0.013455606931882611 1.6463917550931972 0.9461136535889599
H 2.0082456390679453 2.381295513528035 2.0705042947325882
H 4.886184567874463 2.0403290352737424 4.517591546197663
H 3.8836698828132095 4.074705973193875 1.484811275772494
H 5.543332915493844 3.2331141892654296 0.983941232058387
H 5.120254927809997 -1.028305623888085 4.2838530775516785
H 3.3941237232558845 -2.816512986563787 3.4270001913060897
H 0.9707558370979018 -2.4766938729302788 1.9368086868740697
H 2.0736844148196267 -0.2108292116771334 -1.1577088653031389
H -0.11930792439064997 -0.5894984639320909 -2.9169237567389867
H 1.3479129406476482 -3.198014199973467 -2.070021163421004
H 1.027114458378927 -3.6733443119012987 -4.444009073097996
H 0.034715086844907685 -2.1016350209421013 -4.632735507389679
