25

C -2.658319078135421 2.0503598403650645 -0.35359265003380785
C -2.0689754717279727 0.9229317288922072 -0.7070179793083078
C -1.5578590189119883 0.04530107121319684 0.38810343383225215
C -0.6525330318482985 0.8079222816564077 1.2731747551238033
C 0.6559892665079923 0.6037498503726353 1.3298879446266165
C 1.2451975040334375 -0.42166610096962315 0.4819471513609803
C 2.278406855812654 0.04597416716185651 -0.4813911872811766
C 3.4694348779745985 0.6908309119245606 0.1881267244258321
C 0.3126191611068285 -1.409961798997492 -0.05095877057059302
C -0.9937687894044456 -1.218053485762445 -0.10595351961321338
C -1.9281446023697695 -2.2574415308580615 -0.6610865910900218
H -2.7891842575715837 2.36915535808486 0.6829242159374075
H -3.0588143205744727 2.745674552654395 -1.1048329036981488
H -2.45443930379276 -0.22706044101543865 1.0197457342956817
H -1.1132678223971022 1.5711528885564334 1.9001393738919505
H 1.28320129477844 1.1869397274442144 1.994361079436455
H 1.8857175278968146 0.7679167422567377 -1.2291069575300642
H 2.65948693001167 -0.8374921190745035 -1.0338521502497346
H 3.705060550823551 0.1019171286055988 1.1178027504193038
H 3.249721055040841 1.7500422949021295 0.44431029841157843
H 4.321432165878289 0.6111449607109062 -0.5453827174532252
H 0.6933782955461195 -2.35266837768379 -0.42393016364320596
H -2.0655205701868424 -2.0803888552469254 -1.73494835621886
H -1.5412231287632328 -3.274808150525259 -0.5200184006236058
H -2.8775960897275286 -2.1914726446674946 -0.08545513907343288
