34

C 1.9628960716042287 2.512060295723072 -0.48785588419389986
C 1.1060226674556717 1.5444354602075325 -0.616138293622918
C 1.3426636520952522 0.14770164782637446 -0.30712943793514874
C 0.4440621742866698 -0.7999121694532951 -0.4516544235375629
C -0.9297351717815169 -0.7099869468332382 -0.9272414864782044
C -1.6061150359610126 0.28425810471619045 -0.4498356304230712
C -2.277567771570424 1.2283269871821307 0.14288921438800856
C -2.916050193166668 0.911502047029352 1.3702205314404656
C -3.938276326744067 0.0858703711532585 1.3815153154191977
C -4.514396517155137 -0.5718068778854783 0.20758913793432554
C -5.534961521041577 0.28807387686701863 -0.5088168278430466
C 1.0464089264442191 -2.0739589794025624 -0.023495354364552884
C 2.525949606602414 -1.8636262246751307 -0.18848018449192638
C 2.636262465479108 -0.3794026670919007 0.19789493478370698
C 3.810062136492144 0.17732889870450905 -0.45765964380062074
C 4.906463502223178 0.24441402426492922 0.2686619000851908
C 5.954108263013514 0.27151517010235043 1.0639563679678719
H 1.6103864847499323 3.5141653982708942 -0.7709513562055287
H 2.9721084050926745 2.465106087148828 -0.14109467162844241
H -1.437182443566902 -1.337970109749909 -1.5965280807824465
H -2.2596190211785614 2.1566550468583476 -0.3910958917034328
H -2.5801204576839907 1.334204444333997 2.2954294668994772
H -5.050998122191935 -1.4893494636856708 0.5727014009766825
H -3.7956316907538907 -0.9151508506040938 -0.5372134881636891
H -5.333042013439299 1.3574559465329952 -0.4310980987323885
H -6.535842928252488 0.07965788023360355 -0.07944845155236172
H -5.5994638022341325 0.024641041156415508 -1.5902910886390624
H 0.8089541232358076 -2.185947561467168 1.0614979843069985
H 0.6873362323034159 -2.9410637054967634 -0.6139045831480833
H 2.811087644611351 -1.9728407706523976 -1.2541824762297928
H 3.1491100253125572 -2.4932159572146357 0.44661177953228315
H 3.9283685107853965 0.5440460478921355 -1.4415961804184065
H 6.052908091125897 1.1621719906631993 1.6282665711787654
H 6.553844033806118 -0.5993584826548204 1.0320528628954004
