13

C -1.2191095717801967 1.8676859057116764 -0.6211663497214184
C -0.5549901923428444 0.7955653939345112 -1.043507408831944
C -0.06746260510459226 -0.2458330650582942 -0.2255842973172913
C -0.945827208618513 -1.2691220688764495 0.28718006083795267
C 1.1993868772073746 -0.23180447712310212 0.03854391706536023
C 2.391542172126904 -0.2121549790177027 0.5416703574450654
H -1.5527538671420054 2.610566721314151 -1.3147395670197417
H -1.3972433972923122 1.9409823327899045 0.4421201249021754
H -0.4146671987253895 -2.0903799992617023 0.8464939043159934
H -1.4090579670813104 -1.804291509396245 -0.5898746990048963
H -1.7906699363396057 -0.9100370179428781 0.9013686198387312
H 2.643909074436172 0.29001839609508057 1.4239561956801374
H 3.1169438206562745 -0.741195633168946 0.006932733315706693
