22

C -2.5549533926154093 3.4038401258132853 -0.5228527206728621
C -2.0820211905594195 2.1657345914443473 -0.44916689212782546
C -1.830927033153224 1.4519666843803343 0.7472663505241185
C -1.4276364127947099 0.19903272151698218 0.5930730415843891
C -0.9590990220735536 -0.9892425117447049 0.3108548288706206
C -1.9692742571869333 -1.9792047802296657 0.1876199308497453
C -3.2531527609230237 -1.8399496917426874 0.3213488194085553
C 0.4494505365150458 -1.1183711520737332 0.1690672925724738
C 0.9925627830192416 -2.314007161840865 -0.12367744069862091
C 2.4306681744946665 -2.4985670475383905 -0.27938743827276497
C 3.1719209866064513 -1.4096248804524514 -0.37057337716047284
C 3.893513748449446 -0.35564184133232646 -0.2367470401252124
C 4.565636471195952 0.746191307323377 0.05129237850709415
H -2.762899051480244 3.901656239197893 0.40045295817885623
H -2.71334877598198 3.864228034649371 -1.4865723260282684
H -1.897704373436496 1.7100122734801195 1.7613904372254758
H -3.7429690273344085 -0.8861624980855788 0.5595003928758535
H -3.923665973968296 -2.6751569087767155 0.20254444829619478
H 1.1484865827565025 -0.3028617635406596 0.281447588542705
H 2.8156853322941804 -3.4839401107782764 -0.3124335576260136
H 5.25966790370064 0.8038351748856722 0.8565905549415256
H 4.390058752475594 1.6062331954446283 -0.563686250110595
