20

C 3.9261481471581554 -1.0476469370116683 -0.8326925113743171
C 2.7293742505543586 -1.531901690444092 -0.583470612492512
C 1.7495103947165072 -0.7163823005824248 0.08337095590088106
C 2.0378502137139702 0.5082910056253821 0.44639455978173476
C 1.0964878019749082 1.416386150647014 1.134613881436174
C -0.3241333901543786 1.1111903399576006 0.8135059963926323
C -1.138173122119425 1.9650895176012526 0.2481094524100258
C -2.503016181311075 1.581278083504206 -0.026803697198759992
C -2.7447099386941938 0.3517343408413835 -0.4472940236295553
C -3.1364264773439308 -0.889841929247215 -0.4481325395342721
C -3.9243311493063726 -1.949754049616295 -0.5113020073762017
H 4.668414906382401 -1.6811775012995451 -1.3438599855518818
H 4.208846837016039 -0.0582602934031218 -0.5574580768004813
H 0.7742709183627999 -1.11611351977335 0.28451931722281537
H 1.3182229525267364 2.487757492981723 0.8925664116263129
H 1.2161057021887212 1.3051668682932933 2.236280829239776
H -0.6575932288321117 0.10283605128461985 1.0854000837517093
H -0.8023419323056568 2.9432006338900125 -0.011868387113690489
H -4.589272920942598 -2.126090384861209 -1.3448355323992442
H -3.905233783584937 -2.655761878387569 0.2851374946859468
