18

C 4.045033873465064 1.0336311288966091 0.1247071158882833
C 3.2818985281484063 0.0010157275457889558 -0.15909814962270682
C 2.0891860495928016 0.20002654490741606 -0.9529427105173152
C 1.1829674340263845 -0.7446885709187091 -0.9494299820616275
C 0.18128274697486688 -1.5565220217759186 -0.6853026737461172
C -0.6755465848186877 -1.212877864888447 0.5011039843176041
C -1.5533032674247071 -0.041135352680470326 0.04006868680438167
C -2.458982985651778 0.3989407822476652 1.1358800595910425
C -3.7622644875120628 0.1586300068897148 1.0325672245752529
H 4.952008581900591 0.9627995871941912 0.7128157651130025
H 3.769084095674638 2.0077103847961912 -0.23828630443452084
H 1.9378827584720515 1.0895076850322563 -1.527315778373363
H -0.024416945773436057 -0.9045266019646245 1.3355306784886307
H -1.3249265107185995 -2.057885751178848 0.7822266952992051
H -2.095928466116803 -0.28772000728616703 -0.8761284942307371
H -0.9038246318234185 0.8319864047375708 -0.1951512735210619
H -4.1924463958969 -0.345158697146324 0.1820657764838731
H -4.44770379251861 0.46626661559193244 1.8130066922135222
