16

C 2.6475600036961557 -0.48708963638096975 -0.46742139019216894
C 1.4348977395666278 -0.7826164473880772 -0.5513168042500678
C 0.14793136657943715 -0.32656074186872197 -0.20286594460605856
C -0.2115641569768977 0.8884572657576855 0.5126428460759657
C 0.602150325034874 1.8014659790596683 0.9747617965925929
C -0.883026804762855 -1.1087612367387298 -0.5755881489523523
C -2.2576211548508534 -0.7214615246022853 -0.2601469836136165
H 3.3669380826049795 -1.217650337812194 -0.9325513062201949
H 3.1864629227243797 0.3430051848373217 -0.032948747801194035
H -1.2873741097424916 1.0496683554154305 0.6793615936580985
H 0.20856523991909554 2.661763102139313 1.4910738133240065
H 1.655875166060054 1.745242183557661 0.8693428526874829
H -0.6765941138965774 -2.0094162503304998 -1.1015051327380536
H -2.3697945528078272 -0.6656969772976019 0.8538705946352924
H -2.5572672690943725 0.2683964619551304 -0.7050375124035437
H -3.007138684059954 -1.438745380295763 -0.6899914368157358
