20

C 3.147682477101054 -0.2411967851548497 -0.17177178446778074
C 2.0128770522238235 0.3937030922285922 0.07414471493722241
C 1.1982465383208292 0.05790768970692126 1.2669689625654326
C -0.07611360064886365 0.8982307514229718 1.1699882523539333
C -0.7301676871365268 0.48259135719211327 -0.11869678195488648
C -1.156673178941621 -0.7423637562218934 -0.23327004146395364
C -1.8121965421860395 -1.861586862604762 -0.2413656413849245
C -2.612588708261625 -2.8831080414837764 -0.09335552625901433
C -0.86855925832956 1.444867150900632 -1.1904918369085433
C -0.4451178931481451 2.6938475487298845 -1.101695128649937
H 3.7072069450304523 0.033014034615935654 -1.0469997487713405
H 3.485960742628633 -1.0078543467988816 0.4962629497283361
H 1.7260554191045743 0.22141675952033152 2.2194156891170604
H 0.9579286153906307 -1.0364470240336006 1.2356589381348488
H -0.7552990328737886 0.6455777311216289 2.0107770596826957
H -3.2124962021558354 -3.193107457459883 -0.9389410512106543
H -2.710810771244495 -3.4392333016670262 0.8291163873988721
H -1.337515667335449 1.1435499463518002 -2.112020052415473
H 0.027902998442473622 2.9784315327241484 -0.1574241066915741
H -0.5463222459805359 3.411759980909593 -1.8963012537403119
