17

C 3.7344968626156283 -0.12489521210448672 0.2020903935130362
C 2.6998077054016236 -0.6935123345971849 -0.37786876196028196
C 1.6459178012822862 0.16277940377636027 -0.9742005499299724
C 1.0702216069639654 1.2623889664660406 -0.1709744628706782
C 0.26887474094015335 0.08737414606242845 -0.507745392179141
C -1.0360834196266693 -0.47707952690839145 -0.33079628181906423
C -2.0218548763357953 0.0900087420480248 0.3370709472511624
C -3.351006080862212 -0.5259877917212781 0.4952114264911458
H 3.8075699182712253 0.9453891971264126 0.23902441747622027
H 4.495770598348921 -0.7549419560407014 0.6328929688069747
H 1.8513305049878368 0.3937029836474853 -2.0586024695153893
H 1.0520790561561824 2.184939836932532 0.33177360272231354
H -1.2810716493678906 -1.459993036507062 -0.7691067956110945
H -1.8780982389774992 1.067591487729145 0.8097930292782545
H -3.3160942966290885 -1.2896160353437383 1.3236345578497337
H -3.5856652166429943 -1.0731722443342708 -0.4466196983361747
H -4.156195016525199 0.20502337376888835 0.6411835333453988
