21

C 1.506841462671116 2.446649522909555 1.3469862545776696
C 0.4969669025558819 2.0580411608706295 0.5952884416231162
C 0.7180115876629712 1.1796084471010626 -0.503349253179715
C -0.27273196746050504 0.664804663505196 -1.4160569351861594
C -1.5370632687385744 0.7219424855603555 -1.0546476387942392
C -2.715904472157287 1.0434086468165364 -0.5352885344924802
C -3.1891698299360804 0.11825020619830852 0.48348476794703155
C -3.9537683222802467 -0.890958376297539 0.09366772900633735
C -4.692432648383515 -1.7478951700117553 -0.5480549011747184
C 1.9560371874916587 0.7714089203049029 -0.733349813795196
C 3.1088306155653 0.12516518682682376 -0.7413510145212864
C 3.2249071414405637 -1.0672238890764252 0.07850491522382458
C 3.7723971461213925 -2.1508112474947474 -0.4311548123715414
H 1.3719442965148985 3.122724748192369 2.2009870136931773
H 2.5292827895936227 2.123634032944946 1.1687658898318352
H -3.1967182861572128 1.9141423076756192 -0.8886941763296053
H -4.251286909762168 -2.629838517240157 -0.9624683462019957
H -5.741554599308657 -1.576335054067152 -0.6681563486791516
H 2.851015631839356 -1.0380406803122106 1.1117600634058673
H 3.894104088246551 -3.069462712631473 0.10886079924933688
H 4.120291454480464 -2.119214681774591 -1.4491444205456725
