44

C -7.595686925890161 -1.460460894618169 1.7879516999949394
C -7.029440947032056 -0.6992020744816075 0.879412622577421
C -7.66994023413855 0.3346989600776573 0.14307128985446899
C -7.0879834679681935 1.0664667488598314 -0.7435933203815055
C -5.679722532444689 0.9581436552164642 -1.1399218021455093
C -4.735853165151899 0.14933312515646624 -0.720147257841303
C -3.4732447064083702 0.42935248495086675 -1.4266034574027837
C -2.493839596281419 0.9062408735176976 -0.4186386230416975
C -1.4843006201912883 0.15452166883673035 -0.012226691646124546
C -1.3659130828707289 -1.1842134459379052 -0.6008587467183626
C -0.3737123688831062 -1.9635814322643446 -0.22197729696534782
C 0.5632761643274115 -1.4934305601077078 0.7495117116070291
C 1.8333998098840922 -1.6619195809560428 0.4508135154550506
C 3.0731580325092858 -1.7762335552295019 0.018734676767407865
C 3.574619951942008 -0.6771069038373065 -0.7484257798025785
C 4.827204905124723 -0.3197790913370193 -0.6388957474737843
C 5.694003256768394 -1.050066887627238 0.26615180219371726
C 6.9744813479064875 -0.7568559475875252 0.4392001792501795
C 7.609247307203325 0.35995357089047514 -0.29911869327536056
C 7.382353709593136 1.5963161965989703 0.5206035382788697
C 7.9473190911126474 1.6303856884935035 1.7180975018458444
C 8.589131796877995 1.432308835832597 2.8288134470070503
C -3.799463902026547 1.5296062769500052 -2.3359035275292603
C -5.0581110324059955 1.8292859026076216 -2.1705079317637135
H -6.9617087617522735 -2.209337521365821 2.2612694900984978
H -8.640611930931959 -1.3326269255365317 2.037776092157045
H -8.733959103204924 0.5035278894907319 0.36160006718811993
H -7.716716881982811 1.832811626211961 -1.2350334232442481
H -4.861993208453029 -0.630900627512127 0.050733934238130954
H -2.5913278657842684 1.9106933702172095 0.016219612014583266
H -0.7697340150247904 0.5096999732816209 0.7268481076607725
H -2.075831937026204 -1.5410334756501236 -1.337248689476162
H -0.29901214467957143 -2.94693582047698 -0.6639603941232376
H 0.4113204503067213 -1.0243658375007527 1.6825570104141403
H 3.5317269216291534 -2.6814620396138773 0.30374084888077657
H 2.9464923745334293 -0.11709971214774 -1.4303391097979314
H 5.212582706083005 0.4961321641587082 -1.204036709178865
H 5.32858966313262 -1.8938177821409106 0.8616461896529224
H 7.249197978041437 0.4871829587117787 -1.3186750219807097
H 8.707510383675254 0.1803340604021568 -0.26497526295230733
H 8.09439140419495 0.95669929186266 3.6457374528728628
H 9.605276191969025 1.748853246755124 2.9009727888705674
H -3.061885976745486 1.978132167995111 -3.0140182077379656
H -5.595289039536058 2.6084881874928505 -2.7063578844020624
