20

C 4.243816509804731 -0.1834144812456955 0.18994954290575758
C 3.1541210487308775 -0.5803811220741805 -0.4257799798019026
C 2.0561481922753435 0.2940460589435039 -0.8616155600597925
C 0.7202285179232909 -0.2644179109932752 -0.5813577088441151
C -0.358436854203799 0.48430922071528437 -0.2714858484319173
C -1.6139841049621977 -0.12332306900833136 -0.013858117291521515
C -1.6969487808581625 -1.4139578822486991 -0.08343738168476622
C -1.7542104890407022 -2.7034255061700567 -0.07133339112969285
C -2.774582918371072 0.6146924984716444 0.3148933603860045
C -2.753872025829349 1.9233177307524392 0.40033502471464083
H 4.445518997765256 0.8395960476213714 0.44143798205618445
H 4.971190968999595 -0.9685663380758042 0.4488592805504878
H 2.135398156075754 1.2422385959601887 -0.25310243639968955
H 2.14513307075552 0.6131644769246808 -1.9332785003392134
H -0.14116298848177367 1.543609480690169 -0.24970732748599656
H -1.9989237279618342 -3.16612017158107 -0.9670182118309815
H -1.5628761604608856 -3.240726909120323 0.7957926988949179
H -3.726695429436228 0.12042957808925772 0.5086319760423718
H -3.6401856262035532 2.4935877057950684 0.6518225529468139
H -1.849676356521231 2.475341996553644 0.22210868852928858
