32

C -3.067407237660938 2.1740335550542214 2.0206171969723465
C -2.582159303107595 1.1402860279831695 1.3630687894819926
C -1.6159173704057392 1.413395505013474 0.25799352197381753
C -0.22448116041583932 1.374215559200725 0.766401516874152
C 0.2361848533232839 2.156260572224399 1.7635150505405386
C 0.47528251482110456 0.3658684483416325 -0.008642015582710562
C 1.6447856131967964 -0.26477018906331246 -0.2044576894865465
C 2.8387312655828563 0.021245165428210182 0.5650809412848028
C 4.0125175876619945 -0.5213464022537132 0.4626900265032715
C 4.398823001333709 -1.5690352135000178 -0.47723818993011385
C 1.4251670040752002 -1.2093190580914366 -1.2758652783510414
C 0.17348403115742428 -1.173374989367956 -1.73246744057795
C -0.5155285395940542 -0.14970292889129985 -0.9372339158197062
C -1.683781996837254 0.416829585805084 -0.8077208919771014
C -2.870741759039568 0.10551097430024084 -1.6007961998778832
C -3.3383106870391006 -1.1063743302202116 -1.5310024387145038
C -3.702551809649887 -2.361378862373341 -1.3748770948683884
H -2.8308424483257935 3.205799979154357 1.8345887490831057
H -3.7766805810095394 1.9596191247353076 2.830615607105391
H -1.7872734128689758 2.4527425113600776 -0.13806349060388226
H 1.1975884612162366 2.1629219481380173 2.149952821480352
H -0.48628892348925656 2.8531996824655357 2.2048813366879676
H 2.7500562708703282 0.7984460641741897 1.340459469692139
H 4.804577289452504 -0.16130955847134107 1.1508165461922275
H 5.5048952206196535 -1.845502409372667 -0.33483687416499897
H 3.8373870217043473 -2.4978614695517125 -0.2775987094880502
H 4.347920874833811 -1.286475517037934 -1.5446556443534425
H 2.1420495851933623 -1.8818004885102793 -1.6939581892387803
H -0.25210886951506795 -1.7714955847847618 -2.5240167848159265
H -3.397944780209819 0.7555661428859216 -2.2296631506818625
H -3.2669600483735812 -3.037681005864185 -2.055102380699583
H -4.390471667500533 -2.518512838909967 -0.5772459964084428
