21

C 3.4580682967370087 1.9111157898272293 0.9036782308159039
C 2.71437578515342 1.846070614220721 -0.17657202874841751
C 1.595244425046972 0.9575837816244192 -0.3530987961568718
C 1.183628746337625 0.09855254957304094 0.5575510816872857
C 0.052633345316686675 -0.7834752817266891 0.35032112422058087
C -0.43830772254742967 -1.670913417584795 1.183899069797882
C -1.594739833285261 -2.3507898836670797 0.5654574450981499
C -1.7970076337850063 -1.8768683965001627 -0.6272052837661528
C -0.7728475465781594 -0.8479378636546141 -0.859283071902614
C -1.3877572329573595 0.45965640347710157 -1.2069607838315248
C -2.184690420520864 1.013839891443898 -0.3069124729082848
H 3.2653799561850465 1.2808825593635873 1.7480297965129148
H 4.293982095853377 2.6158142745989026 0.9602827854920951
H 1.0170764731041455 0.9595026497797446 -1.291151874166694
H 1.708653781239706 0.0397830422517788 1.5118880827901795
H -0.06261014097719313 -1.8803352869124874 2.172487692116292
H -2.1970542351946594 -3.1289591623976705 1.019099012024447
H -2.553591957989952 -2.1586012191131827 -1.3307115990406746
H -1.2281089738236388 0.9832856515920337 -2.138861230307527
H -2.678128185715423 1.9792228087690973 -0.4865500210228036
H -2.3941990216289866 0.5525704950296533 0.6485582903752595
