25

C 3.8846514985914444 1.3157719639478183 0.04803513026584249
C 3.099162472593845 0.4042866353618444 0.5585678987957752
C 2.7497977768752744 -0.828403483043652 -0.09396304954931524
C 3.1951443201608662 -1.15330010713039 -1.2783362887903678
C 1.829477247601087 -1.7779458232702978 0.6300544192197448
C 0.5644198166732 -1.0570555559410446 0.868743200365094
C -0.208274264602047 -0.5572135337869206 -0.08940460330049183
C -1.4425263322613056 0.13908147846656196 0.27384887438007405
C -2.668307178663494 -0.5192005393279703 -0.34676928363691467
C -3.8971607412932 0.17012122465107088 0.011877743614722415
C -3.8087721135146104 1.4656925507622207 0.24665271543969908
C -3.60373571198252 2.731310512751628 0.4796535400675588
H 4.072226069115273 2.2118306564603487 0.6474166364377608
H 4.343708809174131 1.2212820688800574 -0.9171513366626031
H 2.9025436562676896 -2.107423013233767 -1.741602260337176
H 3.8548444585312907 -0.5096014837749703 -1.8366764761648529
H 2.2752012046801022 -2.0168796433584815 1.6021535237955076
H 1.646368078942642 -2.6879690115334656 0.00972088801130866
H 0.04837558227384442 -0.6496419779748862 -1.1358547227402231
H -1.6224602132123649 0.22639347436395274 1.3444682901624074
H -2.7497502929072355 -1.5797632203602614 0.030576468728248866
H -2.518506508628979 -0.5799371384054556 -1.4550399433409604
H -4.881719483646883 -0.20216868021826437 0.1200811091413552
H -3.364177913321249 2.981045248690378 1.488838112738195
H -3.7005302374466904 3.3596873970241012 -0.3711234444644522
