21

C 0.30281303777364205 3.2141528353139055 -0.6470624279422981
C -0.41038627580558995 2.0949533812888084 -0.6199891185995158
C -0.2572103636462278 1.1999603508722472 0.5560488000811011
C -1.4006145889284944 0.3208183580637264 0.7881917777976063
C -1.8028509813484768 -0.6470100851262617 -0.008531528900398402
C -2.969976125338442 -1.5221923863425717 0.25804595683853887
C 1.0683652077726191 0.4703823594995793 0.48114133288100625
C 1.1687916950906385 -0.3523415820607833 -0.7358617724511028
C 1.954989553450711 -1.4115168512449376 -0.7684571589215009
C 2.8887596691994024 -2.314761574548191 -0.5117915989657764
H 0.18587856270905803 3.8612151807318473 -1.5072047804926663
H 0.992119596387103 3.5342353744089308 0.11955450414512792
H -0.17125214526633323 1.8845365191206125 1.4491685287489218
H -1.2463414274607145 -0.8159109128697156 -0.9175565138925873
H -2.600987071095887 -2.4686029993751384 0.7192149539436646
H -3.7210637585218533 -1.029367132290003 0.9128271309590079
H -3.4653255446954105 -1.841003456096144 -0.6983503878239352
H 1.1488530068193858 -0.1336411219087825 1.412687371444475
H 1.8828453325844303 1.235629436076376 0.5553083332059777
H 3.8984574037727158 -2.0651494010061318 -0.7921368236471262
H 2.5541352165477265 -3.214386292507494 -0.045246578408535305
