19

C 2.667921826624338 -1.969550010636821 -0.039217704082719566
C 1.46797550283283 -1.5580900870847576 0.28958234891717705
C 1.1648476484577182 -0.11942714599539818 0.2807997733987999
C -0.27126959418509944 0.16858100408176335 0.06206946813369921
C -0.6994342112408076 1.5484908928894463 0.03201149289444166
C 0.1533060219635108 2.5290624269895594 0.19311123424405835
C -1.1310662119588069 -0.8281552862000402 -0.10058901997410302
C -2.5748419099103983 -0.5618145667390906 -0.3211197118726251
H 3.4210523636866204 -1.2613624201998164 -0.3120882950862789
H 2.892574877628313 -3.018340810387831 -0.033919674939001915
H 1.7894462339248645 0.3759014488281806 -0.4873325864723672
H 1.4319067624859443 0.3027644683026442 1.293910934097773
H -1.7329988590898893 1.7721762902220481 -0.12487445350535831
H -0.12560463862180915 3.5752882561180073 0.17752746436976186
H 1.2297004536179685 2.3590828294502137 0.35824430930484186
H -0.7751167023002529 -1.8356095463222435 -0.07175457066285369
H -3.099644317564513 -0.28681491971844536 0.6314737940035169
H -2.738660505942351 0.26215474366280034 -1.056904016414135
H -3.070094740408293 -1.4543375672600634 -0.7709307863545845
