22

C -1.8653547982943475 1.8262030995163472 0.6342171981911501
C -1.7375518307434366 0.6757849941933555 0.19521105862319624
C -0.9329143673863574 -0.32026591560255757 -0.30600344443945426
C -1.5045403735074516 -1.5040528542515086 -0.6350186787133204
C -2.924349327641 -1.6459286901663415 -0.4386080745380153
C -3.5429505387159073 -2.7790322575708126 -0.7410696285074079
C 0.4910584927276368 -0.2574126400131209 -0.531758493776192
C 1.2949608074896304 0.7553334696863877 -0.3052593694337336
C 2.746625239395513 0.6334548185243655 -0.6027600915134969
C 3.5763086420276555 0.8420612963509613 0.6521958758364126
H -2.8115954500578106 2.296088330398046 0.9695553411563759
H -1.0327551314585108 2.539409083194139 0.7472530235768069
H -3.4806200383538464 -0.8151024360235954 -0.04058407158186416
H -3.0040361556668618 -3.6260330633669042 -1.1419258334214195
H -4.590157730566812 -2.8709345079678483 -0.591585044616081
H 0.9546957315496558 -1.1878230766978983 -0.9496313575012056
H 0.9530157420289187 1.6859230696424086 0.09146063188968806
H 3.0740953424218604 1.3074975455376223 -1.4187195886542239
H 2.9445133905679954 -0.4046843509965104 -0.9331486189444739
H 4.477783453452224 0.2023934062036024 0.6593241110891146
H 3.941915127587348 1.9030514802129284 0.6424444530297247
H 2.9718537731438754 0.7440691991973625 1.5694820001610952
