15

C 2.7334986767644667 0.07434351697510796 -0.09029230590827499
C 1.7691252237066155 0.4048837623398615 0.7271515072703021
C 0.3872981513796301 0.12663828080804054 0.3535552883712197
C -0.03492952104912953 -0.449661621962896 -0.7700210664117413
C -1.5111000653639284 -0.5581287472504789 -0.7812359759634546
C -1.9688976248097207 0.33499709236273484 0.33461535342585186
C -0.7641124509506368 0.47086212582301296 1.2258481680529325
H 3.757348400389479 0.27923943883727437 0.18390203628565216
H 2.5469667163202017 -0.3948287165400924 -1.0275389634216543
H 0.6125686704121964 -0.7931572199182829 -1.5686129102255353
H -1.8792091196145773 -0.2735000970541677 -1.771787455130759
H -1.7623308627263852 -1.6068254838940499 -0.4986732494183258
H -2.4039707528658365 1.2754542761847796 0.014711593716462773
H -0.8350895515229155 -0.3433858341721506 1.989549792128293
H -0.6471658900694749 1.45306922746135 1.6788281872289992
