29

C -4.337955844829593 2.0797779544874007 0.14115653642173068
C -3.767645039110998 1.4744941191290357 -0.8877577930394204
C -3.359764467272328 0.06186025936805266 -0.7603068260610517
C -2.0980886033464174 0.024925363866615667 0.09601451189363902
C -1.6290127413630755 -1.3540671985830475 0.2687192384367489
C -2.408747664010425 -2.2754471623827177 0.7941929133563626
C -1.1063014890132892 0.9231737621670695 -0.5042464015757743
C 0.09584400416810246 0.5408734584613816 -0.8595156981080614
C 0.4989062634547934 -0.841486203865711 -0.6612160083292117
C 1.682544579047742 -1.3116319136445036 -0.9873053097833748
C 2.740954409035728 -0.5640154168246405 -1.5745184239729555
C 3.860713461805849 -0.5124811220551255 -0.8824936967451913
C 4.894028509499848 -0.42167435183566415 -0.07549569692508866
C 4.875414181188404 0.6767281188793711 0.8754405287638418
H -4.501893616340551 1.5426869126533442 1.0635097910605955
H -4.662993535565315 3.1159089669929494 0.11853768796602564
H -3.1680766860068394 -0.3291736357166417 -1.776960025965013
H -4.1696541891538645 -0.5111463667624845 -0.2439653302665969
H -2.4083502610536085 0.40192372605765 1.1092881653365965
H -3.409341976373209 -2.000751956771623 1.1000923162936789
H -2.0629942597901176 -3.2937465669253316 0.9219755579586117
H -1.386928570958293 1.9565603443743977 -0.6602600792288746
H 0.805531840599704 1.206394602782122 -1.2947975031266166
H 1.847736885237944 -2.370929993914784 -0.7813385622687083
H 2.7895019109407824 -0.03257572925177309 -2.481691503403009
H 5.609398442853675 -1.1803807709724803 -0.23595885106577857
H 5.843070466217645 0.6576377529614673 1.4562640845665644
H 4.933120536643986 1.6361695591312275 0.291010457197841
H 4.000983453491709 0.7003934881939102 1.5543274017114141
