17

C -2.888048746363242 0.6829272467739105 -0.6145049464807902
C -2.3014237993796134 -0.36875436206767026 -1.145848251973595
C -1.195459996462905 -1.113490254082362 -0.4779277078825661
C -0.07037677352531027 -0.12356628428905266 -0.259707818351238
C 1.1108027758177967 -0.7688548436244952 0.41423055112155255
C 2.2241212668632344 0.1618008673231918 0.6666324576074428
C 2.1173846058039545 1.4294448843131318 0.3231179124042275
H -3.6779156568172917 1.1743064650011725 -1.1461434037293956
H -2.573433290038089 1.041613369065475 0.3449540482938837
H -0.8983775421148911 -1.9665159095532223 -1.0991853639305955
H -1.504254532195373 -1.4716296453626754 0.5354497112903175
H 0.20629639086596208 0.38763896001977555 -1.2077510688288098
H 1.455406606910522 -1.6539781305398054 -0.1722837626679002
H 0.7465993719220437 -1.1605680141573218 1.3941255039816458
H 3.139021344647162 -0.1852181236972111 1.1356795086119322
H 1.210430020306502 1.7771363478615978 -0.14250780518314485
H 2.8992279537595027 2.1577074270156085 0.48257841591220396
