18

C 3.8342148551693938 0.0071680051702920486 0.47836028470022857
C 3.050645623600204 -1.0251236136802737 0.38342361399163594
C 1.6062942339870614 -0.9484820206304275 0.31909513504087167
C 0.9460296556989288 0.1879239820313599 0.3512711993046269
C -0.5392106090671869 0.19419064936607533 0.2810617384865116
C -1.32963366600581 1.2243255119738505 0.30111351707112244
C -2.7249498456064476 0.777249536863622 0.20982841519131998
C -2.633543624684833 -0.6733276503135741 0.1330728265826506
C -1.357751611643584 -1.0013858593430252 0.17533522007186889
H 4.920867326015224 -0.1621847306455144 0.520511022517041
H 3.5447018139258706 1.0444230399287273 0.5225896312772066
H 1.065527954798027 -1.8835244893270704 0.241107069578388
H 1.5185369495368017 1.097354284703599 0.42932319328423707
H -0.9580522531601013 2.255071176557626 0.37640368735585883
H -3.279285192208382 1.2402588126068155 -0.6315979035732212
H -3.2030206252176745 1.052826291938336 1.1945377314897345
H -3.4709339373235197 -1.357366494954853 0.055068643289517966
H -0.9904370478140598 -2.0293964322455795 0.1353024124567185
