29

C -3.023085397443337 -0.1854032669022369 -2.146837274418447
C -2.5413221116439497 -0.8616975816350523 -1.1127051856118289
C -2.034775884182712 -0.11888094357862067 0.1028772265868413
C -2.3046592614940042 -0.9262138493989618 1.337656144887929
C -3.1471312927886754 -0.5080734840386065 2.2711466810645935
C -0.6296834309695459 0.2655678706774854 -0.04662569626410621
C -0.18231234634694207 1.524772405887194 -0.09972485474370099
C 1.2306767636895857 1.5516675515865321 -0.24804112727082528
C 2.0414345305497696 2.5960291105307167 -0.3101983060250325
C 2.762772588259023 3.499734891339829 0.372458753289339
C 1.6785992039694233 0.20430434748057755 -0.2894812968047222
C 2.925010839634465 -0.4239996341236517 -0.4128635963687549
C 3.0841026306797823 -1.7867308937511928 -0.4180930501995499
C 1.9475225854615272 -2.5398036687233563 -0.2948513357148935
C 0.703002678743277 -1.9576716994127124 -0.17165681449786477
C 0.5370883108721569 -0.5928172613272306 -0.16559867182871266
H -3.387080803095722 -0.7040308763092848 -3.018999248128937
H -3.0598736306374184 0.8929494910311806 -2.135231803202575
H -2.683693672250486 0.7777205120118313 0.16374347837740016
H -1.8202972671019604 -1.887993465960209 1.5177080022001637
H -3.6407235519435637 0.4392364871822484 2.119867223313441
H -3.358892122257995 -1.067498582930173 3.166410185291678
H -0.8595302097683273 2.3860033879556894 -0.03293532469276803
H 2.285645756903704 4.381475938706825 0.607854378437433
H 3.7369054939057054 3.2814398159359808 0.6407631279057348
H 3.8043832161475017 0.20330843953840932 -0.5086969091446865
H 4.068688824871284 -2.234724705238535 -0.5158474946112334
H 2.0544124191948847 -3.6240156351205046 -0.29527429350216033
H -0.18718486095747847 -2.5846547014141876 -0.07682291832372437
