17

C 2.7619958800498905 0.7040890344566181 0.1283684936589924
C 2.1054607573707567 -0.0047435370925801865 -0.7672017066134902
C 1.1625208980501078 -1.0884136429184925 -0.3641796937427827
C -0.14491540979300635 -0.45311739163078674 0.010623829553795323
C -0.7285108898396692 -0.5382567125798734 1.1951039980549156
C -1.9963811432352043 0.23265902347670991 1.1313601704402698
C -2.020328133556969 0.7453023726373529 -0.24388043269250484
C -0.947362065952372 0.3504813540311504 -0.9005533432293296
H 3.431187046087115 1.474777449308183 -0.19957962242947636
H 2.618722393384534 0.5012616676013113 1.1729616273174603
H 1.6037439642478688 -1.629347483259979 0.49172465051647707
H 0.957420774023674 -1.7719004366526387 -1.210979875356245
H -0.4058050099415482 -1.0530250704314306 2.0900946136967224
H -2.8761268248939205 -0.4590432957508565 1.2500963024017813
H -2.004936490071101 1.0250712180835386 1.9027543315500346
H -2.8033543014419116 1.37183873526075 -0.6981856786317263
H -0.7133314444881821 0.5923667154610606 -1.9485977538948318
