24

C 4.2268563901733565 1.1907864717225234 0.4538242092940938
C 3.5399380166910306 1.1331437746416493 -0.6598238054148046
C 3.0588746995993747 -0.10570033819612626 -1.1637422988648611
C 1.9816068130486972 -0.5860681773305465 -0.5620956017530987
C 0.9096370884463402 -0.9507526630832168 0.10293898907720628
C 1.1782117640899017 -1.7654429561725837 1.273621233745452
C -0.3233491345898945 -0.48361639478816026 -0.4361544157426518
C -0.8770397003275665 0.6350778684682112 -0.016444952822122817
C -2.1460092312584784 1.076347398158548 -0.6000338236919143
C -3.052463936668683 0.08876999422079943 -1.1472341848467424
C -3.428831424209354 0.8357786581963926 0.06795374565447652
C -4.256800968777437 1.131449385859166 1.0612265192744623
H 4.434306278527113 0.2957189224849374 1.0002666660260222
H 4.583698084633391 2.129967617906091 0.8229897799314516
H 3.387643339476002 -0.7376402598788778 -1.9343853781663027
H 2.0807468411698564 -1.415356941929577 1.8122380938215499
H 1.2827547146382212 -2.846830078462998 1.0543802145753065
H 0.3219978099458004 -1.6424999013109054 1.991837466006298
H -0.8109607033102544 -1.0556011804571643 -1.200329367493594
H -0.41003296772250897 1.248696276402218 0.7633622371221493
H -3.6088067900651297 0.3416135726056819 -2.0658216873532194
H -2.8480641142136998 -1.0013338073538882 -1.0081261774054662
H -5.1995490904919945 0.6086508402380204 1.1208122590779046
H -4.024363778791329 1.874841918065426 1.812514541595748
