18

C -2.4525912363185 -1.291397093344629 -1.0257834025564185
C -1.4620366744844677 -0.47869643026625963 -0.6830453171314823
C -1.5895941881189855 0.626660839949992 0.2707321410263196
C -0.5834806987703691 0.589616804026593 1.3910937799683447
C 0.8272456922020004 0.6509417947504977 0.9133334335772075
C 1.2315317020718153 -0.43473255134160255 0.027769513622108288
C 2.335269633549833 -0.23754549239720107 -0.6622033159819479
C 3.4408571463979016 0.022612423728499958 -1.293754544697582
H -2.2377426014822293 -2.0755946877069116 -1.7435527170781886
H -3.4422195948642433 -1.1692578551854214 -0.5978655169197711
H -2.606778656746084 0.5935191423482171 0.7100191869162411
H -1.5330004869171228 1.6212060406696005 -0.2544411330394113
H -0.7365127061183796 -0.37778661169788696 1.9278467293602088
H -0.7688647757630351 1.464192203292784 2.039021003606837
H 1.1460633705226653 1.6356540769738845 0.5641693323407129
H 0.7736692461809682 -1.3700368841077466 -0.15250883642464633
H 3.3178560278635403 0.5081988355900421 -2.2357154648121114
H 4.34032880079476 -0.2775545552823531 -0.797993923456997
