18

C -3.470970895788008 0.48817372858757596 -0.1320264517750604
C -2.390908617052622 1.0050752928748488 0.36878602160228274
C -1.114945057769489 0.3246045087433558 0.3225023572287115
C -0.9018373414758671 -0.8432404486178532 -0.2061074917858544
C 0.43487438087516905 -1.4528565656468067 -0.20504245468469687
C 1.508840994843802 -0.6401351352005408 0.4089148021487483
C 1.8066094043349303 0.6309747847698159 -0.2986164102295518
C 2.8450155586242247 1.3515262760493874 0.05182709642640266
H -4.3829482981811685 1.1073461611147937 -0.03333217287118525
H -3.4906209919481666 -0.45263815190705414 -0.6013502748364511
H -0.29732817177767296 0.8841290166603197 0.7956195297711556
H -1.7586496954599773 -1.3611081666836862 -0.6556062801089864
H 0.7070796578856222 -1.583804474343207 -1.2959285866859778
H 0.36209330608506995 -2.4819667048456036 0.2020814269175468
H 2.416840005375165 -1.2409107317465902 0.49773231530340883
H 1.1715569408203028 0.9640807290114796 -1.100371439444739
H 3.5036243285140496 1.025589653769591 0.8684133309767945
H 3.0516744920945684 2.27516022741016 -0.4706629723058903
