22

C -1.9989564813321101 1.7778722384612222 0.7724409854397044
C -1.6482330118682456 1.0608459434523685 -0.3150444690972168
C -1.5830145300226834 -0.4051747498282751 -0.3079117062674668
C -1.7915908589836689 -0.8846891143252185 -1.7289893915917551
C -0.29640442853903737 -0.9695973831329937 0.20092573509368092
C 0.01664203737738564 -0.5876043112487622 1.585276094624827
C 1.2406330661240719 -0.0844564723204209 1.5959070356638925
C 1.7856807934166425 -0.11307190889195654 0.22255900999862996
C 3.131939286515901 0.3561443401112265 -0.22514398339355496
C 0.8812756294615121 -0.6318897014876562 -0.5872678295365096
H -2.2538926820810703 1.3217129868186002 1.7164696819028837
H -2.032937216458866 2.854933235042569 0.719543938703405
H -2.407661196889262 -0.8270072904595923 0.30437181446983375
H -1.8410948202091912 -1.995767252859508 -1.69554527516861
H -0.923091449711393 -0.6143134423053048 -2.3604759910589936
H -2.736650598276832 -0.43005909801183995 -2.0805204410948352
H -0.6631431305390276 -0.7133724807653936 2.4176287527115625
H 1.775455548518745 0.2945437300330963 2.468775501573402
H 3.0631778560648284 1.3219822941267565 -0.7508536175204243
H 3.7797987834972986 0.431095824001357 0.6686597431048565
H 3.5203078939185395 -0.3760127174359769 -0.9684603227898919
H 0.981759510016415 -0.7861146689742852 -1.652345265767404
