32

C 5.314525313984161 -0.6923904092925242 2.5892812008079726
C 4.298597632541212 0.007961907666164537 2.1330956513824297
C 3.221446815193267 -0.6934027476183018 1.4470080889500623
C 2.1755548126263338 0.027192236430735255 0.9773098772831208
C 1.1260321634264066 -0.6589957573316407 0.3083948222889191
C 0.03390328382251728 -0.06939483110248752 -0.20518105105116155
C -0.0991346769721198 1.3451424240527172 -0.07954362579844607
C -1.103489754417995 2.0672250054862618 -0.5205253323801241
C -1.066861417075153 3.5377114392936813 -0.29639395491478665
C -2.0379327954148927 4.29252556473757 -0.7148844203470902
C -0.8936524248113339 -0.9970696757692541 -0.8408801816860499
C -2.0099918478677825 -0.6454189970676947 -1.4222193899787223
C -2.890919151449484 -0.5800480555873526 -2.3966009044935577
C -3.860523749968656 0.025154820347529146 -3.052959390146188
C -0.5260951968710682 -2.41585159163324 -0.8295816405187011
C -0.8556555538342875 -3.069349454085573 0.24896758879122796
C -1.2100635461955291 -3.664396684037911 1.353836862538728
H 5.359955954874503 -1.7443911289638743 2.4665964543860484
H 6.113423247720322 -0.1671263422419597 3.0988528105099475
H 3.213186067521497 -1.744045319868667 1.2952296839109714
H 2.1901319905327066 1.0863279183378276 1.133901499488167
H 1.2317802594058427 -1.7550259088744513 0.2126665182124475
H 0.7077823943013996 1.9186290280383183 0.435280436959788
H -1.9435127446863063 1.6428468316521754 -1.027232612996365
H -0.2241281701535843 3.94442292151069 0.21437198927091194
H -2.89374398796957 3.8511588610933516 -1.2375143775129889
H -2.084023250754753 5.36239339033949 -0.591017287771407
H -4.864060437795725 -0.29410537543547016 -2.827929754418171
H -3.7134523091739533 0.7907211578274544 -3.7733899488760967
H -0.03555880216293296 -2.9637778572760083 -1.575249403867587
H -0.4850566908477671 -3.6485084791242968 2.1340380592876156
H -2.188463427528179 -4.0961148915028485 1.3422717326894358
