15

C -2.340731425134476 1.1810899780050692 -0.575947249989273
C -1.759888203257942 0.09108739346440257 -0.7127406686711453
C -0.46477061382303053 -0.36783682451318583 -0.32578958365157007
C -0.03471287762772772 -1.6411453478049127 -0.5907542040498727
C 1.3040066464035085 -1.8387497785938864 -0.09363097925434707
C 1.7443127427007004 -0.7437744833707395 0.47703712084236005
C 0.6414174954771202 0.2448577461275321 0.35736567874073655
C 0.755897790587863 1.464450271380691 0.8339373148116008
H -2.010270454455311 2.0763922641296264 -0.12187936819203575
H -3.3793706290383505 1.2706501298704962 -0.9840025442792515
H -0.6705862677851983 -2.3393618482061607 -1.1049035072067879
H 1.8527743197690618 -2.777840326924383 -0.19106023502880554
H 2.708757258549824 -0.6167557046618205 0.9297363761541815
H 1.6661162512557486 1.7971235275997475 1.3358693271620015
H -0.012952033621728662 2.199813003497473 0.7667625226121767
