25

C 5.707832427611671 0.6649506105695079 1.1113421686022076
C 4.72785731796602 1.5130937081537055 1.3521467404259995
C 3.348359426326956 1.0593705022783022 1.3762562862717584
C 2.7072655983488723 0.6045862672042545 0.34245840576782005
C 2.3084494251545764 0.13512402462876066 -0.8038669700846596
C 1.7430158006192373 -0.014012440089966114 -1.9720929087480077
C 0.4151212663599581 -0.5910636652311777 -2.055226088526013
C -0.5353060468038001 -0.2279590642332176 -1.2273401366972905
C -1.844288753531248 -0.8227066172438461 -1.3389189749373835
C -2.783847140234004 -0.4421965197061552 -0.49585496596830664
C -2.5361135873763265 0.573416469306419 0.5577722367231226
C -3.681805605622858 0.6276675209548296 1.485437738045816
C -4.920576525728982 0.6278100491361289 0.9834263409582894
H 5.5030450326824205 -0.3760905516950352 0.9288448355907177
H 6.731767740419206 0.9988579064249083 1.0928971296053596
H 2.821699134081826 1.10409903347564 2.319231125024115
H 2.2321742945774803 0.2802179882911485 -2.899096044285128
H 0.2613245410770736 -1.3353792490635055 -2.8394453217181743
H -0.335718270430547 0.5033936133815591 -0.4778370706970372
H -2.055343358672392 -1.564685309558697 -2.095628373315662
H -3.7600831528689573 -0.8893518954799364 -0.5831963461244467
H -1.592664065487441 0.3604459845399145 1.1234264885134004
H -3.5710483638462596 0.6680213668159554 2.568565353539505
H -5.792829697428724 0.6666532178287358 1.6264577702426144
H -5.098287437193616 0.5892987580839097 -0.07975941820868832
