26

C 5.890815883635477 0.10676921370481034 0.5387211685089638
C 5.6129714784757745 0.02898017888989452 -0.7480448906214502
C 4.297303433069699 0.050793718189690154 -1.328036304556311
C 3.1655575554041353 0.15247126325809748 -0.655347441241579
C 1.8999820371450604 0.1627210849677983 -1.3649385123130688
C 0.9113987748085669 0.9760157940060163 -1.065093609124902
C -0.17659852002951154 1.4888384887880752 -0.512639556045193
C -0.7537290372207847 0.8293255177169564 0.6818002249291778
C -1.3416912522330378 -0.5143279884811915 0.6299044038394059
C -2.264106224119741 0.6861932757958051 0.7656809317164269
C -3.0576031404470365 1.0369081627597725 -0.44332395614736986
C -4.3218778245980145 0.676751090816226 -0.5414758843162886
C -4.990395598831813 -0.0820774329508518 0.5373619136220499
H 6.905257268021849 0.08249920563495113 0.8806390765096577
H 5.083988708907135 0.19459524048475593 1.2349500287424218
H 4.268845033392416 -0.025665836969269752 -2.427568471614957
H 3.219529339566921 0.22673129857359436 0.4304269156179849
H 1.7522215289935825 -0.5267002440404968 -2.173136301346449
H -0.2627626246491605 1.1542077365166297 1.6325577843569425
H -1.2146274549281006 -1.1575628222452927 1.5339771825233735
H -1.4206223401550395 -1.09529767706389 -0.3029829631832451
H -2.7527547913067987 0.8755382933271758 1.742507820298025
H -4.8802576437869245 0.9389426365747401 -1.4228577379267748
H -5.844281906466814 0.5195450925074303 0.9347260356908131
H -5.4201604827088525 -1.023965034866437 0.10327115548077022
H -4.306402199939316 -0.3834895686190714 1.3389209866016687
