24

C 5.440561341777616 1.5960142589910091 -0.21664028977007396
C 5.238438573509057 0.3172120007755744 -0.12594755679284658
C 3.9342641414337973 -0.25218610638752686 0.04234171557318228
C 2.826330103034428 0.45527595040003244 0.12073193046327974
C 1.5482848953446402 -0.25624474646539097 0.2939741288256785
C 0.5937761238584702 -0.006710548262662694 -0.8035083675576726
C -0.7048486193356032 -0.19183259765406044 -0.6273530138705231
C -1.6819860032238922 0.0394310302748491 -1.6738616100814554
C -2.9615561731483497 -0.15758922978877385 -1.453572318659531
C -3.411508167296234 -0.6200283662884355 -0.1249218997504281
C -4.917050282067371 -0.5659677345678041 -0.08308642959787017
H 4.670913224248798 2.3384797163073885 -0.1758547908219888
H 6.4711153572602935 1.9590151867295016 -0.34491370986610825
H 3.8580197739995428 -1.3521027566738115 0.11000181982841649
H 2.89068567623945 1.5388298674347012 0.055207053633909424
H 1.1016343329598162 0.1417659665532771 1.2506060571519366
H 1.7643690404807766 -1.320375431868501 0.47026967455264096
H -1.0671355415569446 -0.5286832038159646 0.32894838635142193
H -3.657314937553156 0.02238151235289857 -2.2477795567141956
H -3.098904451097885 -1.6761414329601827 0.027751581809241956
H -2.9993960331236384 0.019866542454892028 0.6814908012759535
H -5.2986725997952195 -1.1851790101912025 0.769856654562587
H -5.358223838127754 -0.8313148211103912 -1.042918801919498
H -5.181795937832633 0.5160839537824291 0.09654356103961115
