30

C 5.109883123289779 -0.03778376307127609 1.6751590905029763
C 4.239936844041991 -0.7372937563570026 0.9633162539213697
C 2.9662060922059217 -0.12852949248733647 0.5721799181801186
C 2.9741352031280837 0.2896636389614592 -0.8796373284598672
C 1.9547059823276556 0.9030793087741622 -1.4669354855853785
C 0.6497231266425024 1.3231941315612081 -0.9613525658284457
C -0.15316321586941592 0.2888520866952173 -0.28040882663881234
C -1.215737311998367 0.8494500724080839 0.5604217301717018
C -2.46682410467811 0.4929401216443232 0.32174135455604164
C -2.7918733676926006 -0.43336992666892743 -0.7479180925309996
C -4.048889134994175 -0.7654368470493257 -0.9561181320493981
C -5.164377508482315 -0.22978996881252015 -0.13726879743835174
C 0.575401451079608 -0.8187628713838736 0.3534128668444578
C 1.8108937479043847 -1.044342261663916 0.7170581044591371
H 6.068646282348364 -0.42654481044523795 1.9972740065652084
H 4.883883952132223 0.979680878482329 1.9683746968884885
H 2.7420872776409633 0.7907462130009256 1.185165702383591
H 3.839444339505949 0.08483105797857694 -1.4686286546775955
H 2.1421743693163706 1.1243271546451052 -2.508272803656739
H 0.02402789134921632 1.7215016641962557 -1.8134627184779026
H 0.8127403505549018 2.2170068879377167 -0.31408430532730075
H -1.0124635497516634 1.5497422076813168 1.375608985137677
H -3.2739677863730052 0.8846786698027415 0.9192124873516581
H -2.005479489210033 -0.8473805773342992 -1.3691645640780985
H -4.288152196883293 -1.4525974257298995 -1.749954695281358
H -6.079050255442466 -0.8075263913548235 -0.29058636315258474
H -5.321228810949916 0.8453170291768115 -0.349619416734307
H -4.866737401576882 -0.38944379057450984 0.9390699288888915
H -0.08994909001138258 -1.6680531018553866 0.5753069380424721
H 1.984003190470856 -2.01025850820733 1.1701106860128265
