25

C -4.1213176051822735 1.3795069402081137 -0.35999345946898204
C -3.473137266115627 0.22393601640076227 -0.255032927858693
C -2.120528672076821 0.18045328303893793 0.31077767259970185
C -1.7218197272092166 -1.2365870404462795 0.6740447625152319
C -0.22654678131450007 -1.026854675964312 0.9554749772099511
C 0.16182732840603467 -0.22029894708205255 -0.2341411680392448
C 1.3706689314704483 -0.1482161560908424 -0.7548518113339326
C 2.5160331254927613 -0.889327348609855 -0.19195439403879117
C 3.5012471460989 0.009011242611704646 0.47799645361022325
C 4.482846977804674 0.49607359402275336 -0.23396868172150476
C -1.0446118442218815 0.4909158841041206 -0.736427044545971
H -5.121330813301667 1.4079992346708912 -0.7788453869939902
H -3.706020783956541 2.3300788901247786 -0.04510496384876632
H -1.9878829487931318 0.7954536154358287 1.2169183098877805
H -1.8803487307399505 -1.85611719245844 -0.22394522040645845
H -2.2470442855026573 -1.5968179859643623 1.5718231381472185
H -0.16329528312905137 -0.44217699786781695 1.8777211622461203
H 0.30313755793475544 -1.9956163862192582 1.000116936635165
H 1.5323506852783098 0.46719956252420564 -1.6150385757363899
H 3.002153299315154 -1.5767078643178452 -0.8824966945750439
H 3.399303295166431 0.24290562808996644 1.5137614911752482
H 5.218834740950979 1.1509681279259705 0.21176772545315267
H 4.6133645165324255 0.27569300874445074 -1.2927245576415882
H -1.3958530751292604 -0.0209844955807352 -1.6790357079997718
H -0.8920297877774822 1.559510062699279 -0.868025564823917
