29

C -5.401118246497103 1.5999600034940151 -0.3114819249745151
C -4.13237405586786 1.2839202585034726 -0.4222812137567783
C -3.663625845916298 -0.06133033472154577 -0.12130795465271856
C -2.38300575155502 -0.3422952787763731 -0.24372995027505137
C -1.4561309742696646 0.7259738707551091 -0.6862491054001575
C -1.937934145471023 -1.7195136837470775 0.06983790665332784
C -0.5141943453748933 -1.8882260141286387 -0.2246439660674732
C 0.39726523606624514 -1.2808331663944732 0.5089822378454425
C 1.8369735746682117 -1.4392674962324727 0.2268914191631958
C 2.440246964342902 -0.06267718198013218 -0.0820609982308291
C 3.863593334898909 -0.25090122533578574 -0.35682615602081663
C 4.57172110573187 0.82132585318485 -0.5665655315594967
C 5.202314788092254 1.9539261165909507 -0.7657245201667867
H -6.1337420145167965 0.8917945317103321 0.0003879318139206143
H -5.686033881103613 2.6133359748015006 -0.5489018628191867
H -4.381847261389111 -0.8125485945805354 0.20028829350438682
H -0.6100681862790979 0.2930943548426072 -1.2756708871937577
H -1.0551247949659344 1.2930975215314522 0.18329831283768785
H -2.011692792908292 1.422226810121432 -1.3131593778988297
H -2.5808065133586804 -2.4178132544841526 -0.5050150636808535
H -0.22879827645298878 -2.526059205747304 -1.0622341577595849
H 0.0804227235923015 -0.6585639379573555 1.3282325021218968
H 1.972041267934359 -2.0383229455441065 -0.6974801832165511
H 2.347402171965432 -1.91213469064343 1.0748063006125448
H 1.8826399428143725 0.41168680500079186 -0.908200136492957
H 2.337096234084439 0.5819105336347106 0.8262557781961265
H 4.413179372146365 -1.1572629833987884 -0.41068766115158734
H 5.604814536887226 2.396608662468446 0.10835683941489224
H 5.226785832701027 2.2788886970315008 -1.7708358601299181
