22

C 3.7015257954376195 1.6071416901680646 -0.23201609638237067
C 3.858007973303646 0.30664956518407926 -0.3179638251112248
C 2.857326702217601 -0.5850873957482352 0.32605488199837956
C 1.5426377622869518 -0.2816562363591165 -0.2812469730049099
C 0.8665123490679605 -1.2155218023037488 -0.9162248715592911
C -0.4540809815467421 -0.8875334050309166 -1.5193913734606492
C -1.5541531158048498 -0.9608735639505686 -0.5444234952898342
C -2.2792691441660997 0.09091697913069544 -0.2790952173328366
C -3.389848573692101 0.060642771388360654 0.690175961044188
C -4.0684936827843545 1.1583129693289225 0.8996470115920716
H 2.8668647501259557 2.023636035523477 0.29326173482571816
H 4.41863521124482 2.2598024065644013 -0.6936736597973675
H 2.813735459287851 -0.3860518110914962 1.4267948468983889
H 3.1623899530990283 -1.6259446613525492 0.10711436607492553
H 1.151516169168074 0.712548214878863 -0.19432202009556168
H 1.2099952433676986 -2.2370966913317125 -1.0364886688983406
H -0.617969021335912 -1.5132688341872687 -2.4194608311388297
H -1.756516978210092 -1.890510774734609 -0.05085134887085567
H -2.0438051984271577 1.019831702780174 -0.8009992693309254
H -3.583916165551473 -0.8821087157252168 1.1810953006115716
H -3.818528266754707 2.0563922808003388 0.37579942474754546
H -4.882566240333087 1.1697792760682395 1.5985961401261797
