17

C -3.557623717080187 0.18919186233548063 0.41104747212924636
C -2.692135602280235 0.8307606301053242 1.1465322321117057
C -1.269560907898223 0.6442452333617298 1.136358216587129
C -0.6665729560256539 -0.22887605264943117 0.35203091959133836
C 0.7931936835338614 -0.43673788201218766 0.32542169153816414
C 1.3783609617095587 -0.15721337299398605 -1.0540866329815175
C 2.8649216902287575 -0.39313757614964534 -0.989720546446271
H -3.319730075159822 -0.5771760007499824 -0.3128174033312104
H -4.604775807851068 0.4375239395631104 0.5276003519348588
H -0.6726173831750512 1.2541372387252607 1.8080616652907933
H -1.280693909559901 -0.821245244657111 -0.3045823292016192
H 1.3337168753440984 0.20242238790667683 1.0421910950001871
H 1.0582927116760201 -1.4957972313999754 0.618100544618603
H 0.8991978359783929 -0.8274075127813676 -1.8207503654250674
H 3.192465278115576 -0.2735316317820038 0.05977525559459773
H 3.445607156720559 0.3422715519918363 -1.5826661784706249
H 3.097954165723429 -1.4319562271808346 -1.3624959885402812
