25

C 4.238161273888412 -1.2064042178764416 -1.5316314770627808
C 2.927095642011053 -1.2629914212093662 -1.656025573457814
C 2.0766320163871534 -0.19567623127749095 -1.06887941595273
C 0.8031957197384456 -0.7617467748943263 -0.5738714189776998
C 0.5761021568426075 -2.0445608371256463 -0.6954143554338514
C -0.17748754155001104 0.12595939232762748 0.04229106850864649
C 0.10552896697474398 1.485805166709945 0.15141137237307323
C -0.7917241823828766 2.345086546567695 0.7234564717098244
C -1.9993280068967516 1.8747159467275285 1.2045182527204004
C -2.3146365408216942 0.5363884929595507 1.1143200874692918
C -3.613705543478068 -0.002553255674385025 1.6259729662481601
C -1.385069470163394 -0.2998511958395834 0.5312614946222531
H 4.682720627656239 -0.37648340583264167 -0.9990303277760757
H 4.900550125944281 -1.9508688205485987 -1.9364089412021053
H 1.8759016722359358 0.6277129954963685 -1.7981673210692368
H 2.657022017388157 0.2820111926624383 -0.2365308266094192
H 1.3603356969224736 -2.667552013742982 -1.1727511631918135
H -0.3231353936053467 -2.5424894834427736 -0.36329261765513754
H 1.0682897075079776 1.8381303797935373 -0.23613777386661608
H -0.5696332244552738 3.4160379629545368 0.8097526406826213
H -2.711695053393798 2.5659174943029424 1.6602681931356078
H -4.166166797641792 0.8237189929099563 2.0963455030973024
H -3.438493633298914 -0.7910464406009139 2.3879851673231363
H -4.1405982938588926 -0.47712084843126407 0.7826198945056846
H -1.6398619366914402 -1.342139614524952 0.46534244011514786
