29

C 2.9083886002278634 1.657475455083386 -2.3095659816755867
C 1.6305197798917865 1.497558943022382 -1.9293326971179239
C 1.2199571856475946 1.9203475720328342 -0.5663781923115303
C 0.11562308694756158 1.0663672019331591 -0.03970302896084311
C -1.065738248056061 1.5882357904882705 0.29711330590495594
C -2.1109328387354447 0.7148124279985077 0.8058767522155014
C -3.424594619844039 1.197431077298538 1.1958233087475287
C -3.7520810100922564 2.4635985113009933 1.1121550821115622
C -1.886968550066461 -0.6154582210843187 0.9364097306838449
C -0.678732696929444 -1.2194109241634075 0.6030242001430024
C -0.21724011736818058 -2.527294788046038 0.6457997085654094
C 1.061278292783456 -2.5125301419504105 0.18971566720807959
C 1.9802995507906165 -3.6713823139956068 0.04657141898135536
C 1.4432595935976986 -1.151725094361124 -0.1606982569130382
C 0.38516926145044494 -0.36644847067449815 0.09084207740210287
H 3.2661128391925125 1.3746673481204819 -3.2731944702980886
H 3.6325633753144837 2.0934634097975104 -1.621314965720932
H 2.114919593665875 1.8005315784553124 0.10663605084299974
H 0.9525904054289555 2.992784268547958 -0.5194203705229888
H -1.2246808371433076 2.6620975189490492 0.18398719352770251
H -4.185983225659625 0.5258760001000512 1.5719968890664966
H -3.055105969002606 3.1880330464080333 0.7504857895289698
H -4.731657728878177 2.7826838668564298 1.409354449694519
H -2.728185067553747 -1.2071602042995286 1.3283356810738933
H -0.6498759757467684 -3.493289428139002 0.9519282917070243
H 1.362920371503218 -4.5887103021331805 -0.046516180972439126
H 2.6272811971554506 -3.560018787032104 -0.8569132461210167
H 2.6175492021674227 -3.791671047002693 0.951284729290991
H 2.3933445472968193 -0.820864293409877 -0.5501263440727338
