17

C -3.632815390570615 0.7503907169125502 -0.12719187883227676
C -2.361072302691804 0.9810582899584265 -0.4951463361899132
C -1.515869614694713 -0.21270423386904216 -0.8276630175189666
C -0.7693675763562698 -0.6939153867399086 0.39067177922714574
C 0.10549509161848636 -1.8494277041459386 0.25767607006306104
C 0.670154153201786 -0.4362017656607276 0.526354754639889
C 1.7349069341099965 0.2926513705041228 0.715095051476524
C 2.8834186356146985 0.905451711259343 0.7011843424890588
C 4.081363048667875 1.3929621601658853 0.726379235049753
H -4.286807890636189 1.5824284547726724 0.12410962624412583
H -4.043213435958892 -0.25305146606165757 -0.0691017214901525
H -2.107586738652783 -1.0221249433995165 -1.2750363063383823
H -0.7496946256054486 0.07455183194019238 -1.5797387489841352
H 0.35750917319076675 -2.50778718705892 1.1089145013008719
H 0.46737418887809307 -2.2351494448448515 -0.7139731981324596
H 4.902306806634159 0.9529639879414025 0.1955853156446617
H 4.263899543250691 2.2779036083259516 1.3041615023141597
