16

C 3.254326878991627 -0.39037018086653036 0.37273247754910394
C 2.436613559507056 -1.4067465323504351 0.1850038770137463
C 1.3162917484425287 -1.2126171177205716 -0.7118983576583652
C 0.6348952009186601 -0.12480865514710385 -0.49743198001299027
C -0.06685860215888455 0.944478384317311 -0.1951703351052718
C -1.1226376438857186 0.7463275347168921 0.7888064755712023
C -2.0932476248139364 -0.4185649835832981 0.4411213507656081
C -2.531149980642052 0.9925273475584245 0.2735978064541397
H 4.09723989822985 -0.5031084089067773 1.0341078627512177
H 3.1222217594872395 0.5637571573997907 -0.10839298166095643
H 0.9750012343981231 -1.8132891866360537 -1.4999076279443775
H 0.23114958714241218 1.8162905078117515 -0.7100800190706353
H -1.8520496963174096 -1.0320646752061793 -0.42439305280329137
H -2.533863321760898 -0.9651072578880234 1.2948715584696036
H -3.1934586632857016 1.4556426620687453 1.0304130952152057
H -2.674474334252927 1.347653404447818 -0.7601667622902164
