16

C 3.853103189635302 -0.47809265773112625 -0.9617662684239925
C 2.794641470981063 0.28437392798507993 -0.8622495374326977
C 1.495706327939122 -0.23839907305747388 -0.4276686685765932
C 0.43001405616257504 0.5151081067743898 -0.3244220099975572
C -0.8098113153396893 -0.07685128823253572 0.11032236956475228
C -1.8908181170185163 0.66708759107788 0.2194693971216141
C -3.1797909465467873 0.08666746600204424 0.6639509582337707
H 4.774527689070499 0.020607408583339943 -1.2974284445431548
H 3.8768316084191374 -1.540370631890079 -0.7401137771374727
H 1.458057942181132 -1.310765899572884 -0.18864543846470447
H 0.47680866643768954 1.5515733237926057 -0.5581059328640091
H -0.8853715234929057 -1.130516834085029 0.3547576114152918
H -1.8728203143318913 1.7204126945204572 -0.010607847715472338
H -3.8629945761987847 0.04053497566801129 -0.23350039282242815
H -3.597535486568635 0.806321212110272 1.4205061413890447
H -3.0605486713293204 -0.9176903219450011 1.1270341763280294
