20

C 2.0331977179268805 -1.1961475003057254 0.6408446195112072
C 0.8000942503408982 -0.888836627710072 0.5443526564990252
C 0.08058216075214157 0.17923931575283492 -0.0619175913153039
C 0.5493844710716754 1.2064799054544317 -0.7333032219192354
C 1.978096024432578 1.451004908776343 -0.9933418401186476
C -1.4209730730413401 0.12063093279110586 0.08846191411666206
C -1.810316693839867 -0.006066466368849546 1.5420015510353056
C -2.0204915221909463 -0.9350566504210501 -0.7833414475016844
H 2.277513179590709 -2.127016268225071 1.19830107122961
H 2.9132450704696233 -0.697472843199563 0.2654848412861048
H -0.16190402301891577 1.9294742032535417 -1.1264522407151354
H 2.10886508171627 2.378108125812997 -1.6213036993800418
H 2.383035418233538 0.6329592164860082 -1.614242012792604
H 2.5805660470756133 1.615957523089253 -0.08022993297657738
H -1.5386527004451667 -0.9909596722738344 1.9780393024686804
H -2.892742233554363 0.13917313950735083 1.6143370501582626
H -1.2924585619542162 0.7771844496123116 2.1039317126856534
H -2.9709159438624533 -1.2749041184897933 -0.30282757911148384
H -2.241146124306105 -0.5016966141915362 -1.7929542702549461
H -1.3549785453965841 -1.8120549593505966 -0.8658408829049047
