15

C 1.7567577286493057 1.9259982732795982 -0.33561446038024195
C 0.9231044632655239 0.9345095589799061 -0.23271091212747946
C 0.8686200694363696 -0.25724449674313427 -0.9892933013520668
C 0.11099991856223072 -1.2908155135942203 -0.9855472517496048
C -1.0165794500550223 -1.6354634417226153 -0.1714941862581359
C -1.58324426269542 -1.0362686091767834 0.7608046096512551
C -1.4631495516275848 0.17863192516199822 1.4721912728186755
H 2.521367511450479 1.8571107012324224 -1.0925841968103032
H 1.724519276603411 2.79726531947546 0.2844451560577143
H 1.6853528632610153 -0.2958758244992216 -1.774152581770855
H 0.3384818679731516 -2.107985801763992 -1.7502804057222192
H -1.508863027427288 -2.659743779673936 -0.4079534783839038
H -1.6212738193902536 1.1078015175132878 0.847877551161775
H -2.236735272016991 0.24995517971926431 2.3344016341128153
H -0.4993583159885631 0.23212499181156107 2.0399105507532407
