44

C 4.226022699909095 2.5422735681551663 1.3375372591658856
C 3.1709237914471906 2.404898430574365 0.5474956627611571
C 3.1495014531199415 1.454117416246503 -0.5942334372714552
C 2.469936601328129 0.15739076500253882 -0.23117061387152207
C 3.2432818691172014 -0.4551414247446951 0.9155387200779916
C 1.0383564710543405 0.4085737723736809 0.13523578845501397
C 0.33681425120410996 1.0125036808575683 -1.0095991690791748
C -0.7328660364808286 0.3125734284399366 -1.372989399703658
C -0.877725462366439 -0.8663450072465244 -0.4975028912187774
C -1.0519890790267405 -2.177708934126422 -1.2205152774307757
C -1.2019138390389559 -3.3368708932410187 -0.2956270405586615
C 0.09066668901581093 -2.4584893208006107 -2.1329447594028297
C 1.086904415059781 -3.265343831210967 -1.7595728520888854
C -1.711925122245797 -0.6769520066331081 0.6941300387263531
C -3.114482485974509 -0.5520829179925435 0.9667328141815816
C -3.552673405580138 0.6746219598195583 1.150710563993802
C -3.9133916926152192 1.9226062470161376 1.2165792280946828
C -4.272816590814877 2.584758820334003 0.0208024437379896
C -4.650262587888198 3.847967418985899 -0.003686893101181495
C -0.6686321161528898 -0.6525410825816135 1.5441682680559932
C 0.27416072576058076 -0.839360337307064 0.44141589440748286
H 5.090823873582439 1.929901795503705 1.1242280683407206
H 4.188428085594354 3.249483636015553 2.1549648659145344
H 4.225455815505778 1.2395616601347414 -0.827057582631167
H 2.7023055319427876 1.952628210963734 -1.4785895433624991
H 2.5404865522308757 -0.5283664114116584 -1.088426870590084
H 3.2194989102306684 0.21965392251428426 1.795760280389649
H 4.300184012381748 -0.5178100078995098 0.5882900118284259
H 2.917229095314833 -1.486443674106434 1.1487518352781678
H 0.6683528444889836 1.9390259889615482 -1.5012247353791877
H -1.3755071165048443 0.6064761108541489 -2.2006778110330725
H -2.26019092226148 -3.535167924800404 -0.020376967378157862
H -0.8747027647850417 -4.255892644084402 -0.8542288324725968
H -0.5649970887461128 -3.2051398880684308 0.5948980571845522
H 0.14596652379732747 -2.0129714129118983 -3.1318554748464367
H 1.9187629397836354 -3.4746850456202565 -2.413572570467428
H 1.0963338858358773 -3.736694223744686 -0.7916902715160381
H -3.8664538367386276 -1.2828155261287337 1.044051288794919
H -3.8900687353211953 2.309970953444952 2.21718985901859
H -4.252985936528181 2.0794858250970027 -0.9279525438817147
H -4.931053325689891 4.388449431063995 -0.8875542844013743
H -4.681712593371166 4.3853849022186635 0.931310268108231
H -0.5253140027689733 -0.5424314836119037 2.6171522050027645
H 0.8712677031950189 -1.7630539463047685 0.5540754583722448
