14

C 2.1920861258550772 0.2786260163898172 -0.10762620368867314
C 1.4176346418719779 -0.761661349437001 -0.103522731021604
C -0.030364921900644354 -0.8276026864142766 -0.04269203854440792
C -0.7323331603817623 -0.1678258218215466 1.0928311531682875
C -1.7932301633381031 0.3071611008004779 0.09580908196432146
C -0.8002864801101106 0.026473738819001953 -1.020213391553769
H 1.8398736400695417 1.3003614502666043 -0.06346816257122372
H 3.2638149462873947 0.1330564359232238 -0.15814443852473317
H -0.3784965459566144 -1.8963107201834408 -0.15797166766949275
H -1.2105581578793734 -0.8527241467565116 1.8257021438369403
H -0.21638910321071184 0.6434496459998631 1.612746382553161
H -1.9937501752123774 1.392148500887864 0.22067751252088
H -0.2968113313260071 0.9539833477410435 -1.343005134683357
H -1.2611893147682802 -0.5291355122151157 -1.851122505786369
