24

C 4.244685070699322 0.375017705112218 2.2229620161113037
C 3.259725259178885 0.43723757223372606 1.3428913658727009
C 2.232995643582051 -0.6281215011627101 1.227042617122455
C 1.0367684928531173 -0.14044562381343711 0.49979310579489744
C 0.6005296861073252 -0.6745938282958617 -0.6189588213147913
C -0.5952331189458259 -0.12966951093600287 -1.2766885875018135
C -1.1030391258736825 -0.6003480753137972 -2.3995564929085824
C -2.2757775217092755 0.18410911548426995 -2.7446003838941673
C -2.4751509846938133 1.1149818269945557 -1.844314427093142
C -1.429934961750277 0.9981208996811731 -0.8353317670752712
C -1.9131160800170879 0.9050964050212377 0.5394782794627999
C -2.6166449178168305 -0.14257303991592662 0.9336874488650903
H 4.97597486885868 1.1648135891863627 2.2835058745677004
H 4.351046466409437 -0.45787327036620573 2.9038886810256006
H 1.8877597314551702 -0.8911916370765922 2.263356018879571
H 2.643525730777602 -1.5531012758696208 0.7793249985901998
H 0.4994058824961211 0.6974851942251195 0.9124191722523577
H 1.0882029150105252 -1.5080331466037964 -1.0835204864301744
H -0.6979824268889463 -1.4538909660592487 -2.980230191485963
H -2.8723230104602235 -0.022086893760404847 -3.647876836088278
H -3.3097183929913907 1.810152189337743 -1.9260111069045116
H -1.7061260640815845 1.6854621624487798 1.255448300153366
H -2.9867377507929627 -0.2259734648227304 1.965322567368079
H -2.8388353914079087 -0.9445744257268348 0.22796865463090416
