20

C -2.8841780870499325 -0.8859935809752383 0.653846048238472
C -2.069735031825512 -1.044329764714545 -0.38317639158450906
C -0.7851846569223372 -0.2885492171348114 -0.48028014556846843
C -1.0505635028390716 1.1493107991581466 -0.8368424720410611
C -0.06240151886999246 -0.4525103122329772 0.8159541339497701
C 1.2496202618613923 0.3032056770963811 0.7538603561226874
C 2.100162555449691 -0.21294179334403046 -0.3379080450684571
C 3.2031145739789775 0.40174252478800276 -0.6758418151691054
H -3.8049221550054284 -1.4571816490453537 0.6783728299102236
H -2.6998313620946672 -0.22197373380388355 1.4898224150433867
H -0.1565284287862175 -0.723528664783335 -1.2792312164417994
H -0.3950062643633341 1.8625569748706468 -0.3184791940811033
H -2.0922483732539088 1.4027256981958072 -0.5531378708873508
H -0.9841433227258097 1.322624465708592 -1.9435623292533921
H 0.2149909904375382 -1.5352717454391216 0.9031523541667232
H -0.6462983988712413 -0.19920140946657855 1.7098226322929755
H 1.7511777409337523 0.3777007213376544 1.7209857852703552
H 1.801998966379497 -1.1045107650313293 -0.8554671562974673
H 3.498564899340235 1.296369585643275 -0.1535895777468099
H 3.8114111142261002 0.009756189172723428 -1.4758362167487236
