22

C 3.789217861379474 1.5313623588034577 0.4979273742307599
C 3.134370031608101 0.4550296868818068 0.14514919702750415
C 1.908021382654788 0.49957722028524926 -0.6816026630432198
C 0.7631486620087597 -0.2250758152457085 0.026656548483740394
C 1.1717198482640012 -1.6523420599943568 0.24543866309953227
C -0.4726339344762863 -0.060276738705438475 -0.7362046674668649
C -1.5555309603719607 -0.7796826182327647 -0.5495009138817546
C -2.7629492724213027 -0.6200228973495864 -1.293504212123055
C -3.6687703044279703 0.17669228935069284 -0.7898513063262782
C -4.519725444464307 0.9952935183925263 -0.20789631977145226
H 3.4391758843287246 2.4987346742433014 0.18497775846667772
H 4.68591318525359 1.4888922952087527 1.1032377367124173
H 1.5654480697832667 1.5324757251085375 -0.892309861375537
H 2.1263707273578096 0.02520024293138348 -1.654936175125827
H 0.6234399783055269 0.24573845667787111 1.0198941220531064
H 1.7418574915865481 -1.9796511333123326 -0.6508849266366541
H 1.8746612770379076 -1.718851637459648 1.104109517315639
H 0.33844605191402233 -2.332818617439879 0.4581699394171478
H -1.532496886126201 -1.5531865055403933 0.2274301491853311
H -3.043916519121216 -1.062787358631433 -2.219375971968642
H -4.413683982811574 2.008944771482145 -0.48665434011112585
H -5.192083147261734 0.5267541425457666 0.4591344561433885
