19

C 2.5985376087639085 -0.901610134801829 -0.13253918456836336
C 1.7373282919316286 -0.646082088490396 0.8237217187210477
C 0.7058804311768615 0.42051600981463483 0.7530970955982003
C 1.2513641234237418 1.543972368331028 -0.10238765453696948
C -0.5933123189410078 -0.0741550380935617 0.288572535827207
C -0.9022789956695313 -1.298883085412829 -0.10485127289199801
C -2.3200069842142184 -1.3541729686308308 -0.4879055901459085
C -2.8666373229070023 -0.16886767547244969 -0.32718734779050396
C -1.8239447249865886 0.749608117483495 0.1789100948543577
H 2.6566756244027765 -0.3749493928514477 -1.0666505055639304
H 3.307123818328015 -1.7047845592773256 0.02856010665807676
H 0.6365524579646431 0.8436300634737558 1.7980013318829537
H 1.439519574181229 1.260583104852944 -1.137510281831863
H 2.242113064280927 1.8200836193264354 0.34747991537063444
H 0.6226090859244726 2.4725355073453623 -0.0002531961852830216
H -0.2296976771256544 -2.1634184913152885 -0.1507914957602166
H -2.88390180050847 -2.21153048638294 -0.8537832131435991
H -3.8848976669213884 0.14431494434382322 -0.5121205729940691
H -1.6930265891042766 1.64321018575743 -0.4523414500171338
