24

C 4.435667890945204 0.3237780870350754 0.21232657679353775
C 3.463041338637923 -0.4914474709858024 0.571385919528568
C 2.091279096102986 0.011760848237287232 0.8716233145278306
C 1.2742576288920473 -0.15959712229139272 -0.3869610063877115
C -0.11838333367576205 0.29654579743305715 -0.24924663456559468
C -1.08490902833162 -0.5637657048155119 0.02463537322990877
C -0.8714174664757276 -2.0246895367188213 0.2143159819695194
C -2.478691414639414 -0.051724148973305836 0.15323568854212014
C -2.5221188875867693 1.4208404756019055 -0.06353911733534788
C -3.2499448930679415 1.9152294284512361 -1.0431053492434232
H 4.235679183264038 1.3754618673375145 0.13407449291667844
H 5.414806460825937 -0.0683001374885339 0.0021280616302004887
H 2.1512007364479158 1.0699771505217446 1.195423967378777
H 1.6691316601139505 -0.6147527626735749 1.6842343104273225
H 1.7324101006232913 0.41181051345148495 -1.2199696985237576
H 1.3051847928984779 -1.235237179291592 -0.6562118985479024
H 0.12061457215548957 -2.168332288213888 0.7134717125612425
H -1.6846810480659473 -2.4417751927977878 0.8126414431561969
H -0.8462907956352417 -2.4607250841258055 -0.8277769992845508
H -2.864348782918778 -0.21660889246366669 1.1980251535391175
H -3.1662099960041172 -0.5897600415641353 -0.541002206432849
H -1.9333992629974386 2.025890389051108 0.6185552807392682
H -3.807131295141033 1.2501637262857763 -1.6785207783226461
H -3.2657472563660064 2.9852572789976306 -1.1805940002493998
