16

C -2.7180532390130097 1.0644336549775089 -0.22875597538056955
C -1.4292635484940923 0.9137415154595299 0.1292551110707745
C -0.8690309012210311 -0.43586726051977454 0.10739644532782303
C 0.5784799551968143 -0.5233009909652041 0.016342041601663745
C 1.381924484199564 -1.7227295024741995 -0.02248032854390746
C 1.1830747908370227 0.6255996734204233 -0.0337014671454398
C 1.8654900851420486 1.7537693259713867 -0.040513055826004285
H -3.1862597944239663 2.0452770685905928 -0.2308177540483218
H -3.341663126854062 0.23238130202614507 -0.5271035433545921
H -1.3046335091435224 -0.9573097529575983 -0.79463334391487
H -1.1856768631772985 -0.9853081489862864 1.0321653106232163
H 0.8867218351606402 -2.5007883788228287 0.6275505160910126
H 1.5642668908619992 -2.1356692205456245 -1.0444426952427917
H 2.4047549556529857 -1.608408951723774 0.430557652033059
H 2.0318809130449793 2.1222563933590566 -1.0104962398448398
H 2.137987072230705 2.1119232731905924 0.9148146123723525
