19

C 3.5292989313196603 0.5031697894402746 0.12894556677722596
C 2.646612861345269 0.00880225890035223 0.9909352841677745
C 1.8755451154333145 -1.2058938312783525 0.5757131925276008
C 1.1484877791217503 -0.9216086395631556 -0.6589968043067453
C 0.13157981983768868 -0.10970535858986157 -0.5553599869147288
C -0.92992560698044 0.6219234243821807 -0.33134311112784587
C -2.151932841958545 -0.09681471185908583 0.020867406261091525
C -3.299620912161168 0.9153898643180586 -0.03868547750687151
H 4.098412285292182 1.3746491906756353 0.3979997373876478
H 3.7025413090040287 0.058767217815492184 -0.8481919952618514
H 1.193553864552404 -1.5156236444146107 1.3827388492715966
H 2.5954677846843768 -2.024738280924787 0.39131680855339085
H 1.3151529974648484 -1.2737927141378151 -1.6363794147737787
H -0.7608823952792507 1.6549117791493506 -0.4350628516946564
H -2.3812332366688578 -0.8732831034205302 -0.7478639148359636
H -2.1181324250224405 -0.5846766027706379 1.0047883736142686
H -3.2731005577410177 1.3989357628507917 -1.0373386643234197
H -4.243096887116637 0.3910922119251073 0.08509752194601178
H -3.0787278851271354 1.6784953875016033 0.7145882947841632
