15

C 2.8904870186914633 0.3929038966510927 -0.10779428963720598
C 1.9393055528552912 -0.27725441081585483 -0.7359869240171479
C 0.5401096472512613 -0.23621188894651415 -0.2957799753310262
C 0.009143025273053265 0.41305241751858374 0.7132132171794564
C -1.4729811064304452 0.15908385859693916 0.7819353467347565
C -1.7482382463389845 -0.14493680841897516 -0.7037889065957419
C -0.5255098808897457 -0.9871283121912193 -0.9788384626617505
H 2.5983501131409366 0.9767582538558407 0.748442500894643
H 3.9103353006284203 0.3368388458592197 -0.4633977809157763
H 0.6056068266329006 1.0370850707668682 1.3794959579195267
H -1.7119784094582107 -0.7422142698211298 1.3369752006868654
H -2.011841674187365 1.0595123169453033 1.1083073819646825
H -1.7220705142971013 0.7733613279758093 -1.2872730433532393
H -2.6788519209309203 -0.7327645999233294 -0.8132858975732049
H -0.6218657319405492 -2.028085698052667 -0.6822243252948499
