19

C 3.6482371228405936 0.7270002110868214 -1.497939763770457
C 3.065497463326186 -0.03052049833152387 -0.612601425157468
C 1.6842950553804146 0.19013240581456747 -0.2795878011312709
C 1.0877007657712243 -0.5636361748088698 0.6076774853982683
C -0.34551242522257836 -0.38930072828188833 1.0008723275752465
C -0.9647328395052355 0.7351681413979314 0.2475214010859831
C -2.406371791052971 0.972626612167689 0.5949588414042805
C -3.2995408575557477 -0.17859911375304457 0.27674248828873416
H 3.110157948241308 1.51111727922243 -1.9795510813321995
H 4.675484910543656 0.5587015390856371 -1.7419099932356479
H 1.1359422656335918 0.9741731264341842 -0.7557462580458528
H 1.667816349284441 -1.3577442865050522 1.0821166279948928
H -0.3387348314004886 -0.23050641139953193 2.0990303528028917
H -0.837183165756216 -1.3526775491107688 0.8097605171394103
H -0.8347102280217945 0.5028852341374859 -0.8500606786095821
H -0.39603067348460946 1.6697056375240082 0.42575152917270737
H -3.461781560423686 -0.7533820504306162 1.2128791690434035
H -4.285576184383708 0.19344007968197302 -0.12301314215339614
H -2.9049573233192367 -0.8489270179456698 -0.5169005954169245
