30

C 0.5898518504470498 -2.972181344332335 -1.5413812040921773
C 1.1056905617329547 -1.9324509254852749 -0.9281243654490531
C 0.30654187342330375 -1.0624214692904792 -0.06696768248657124
C -0.9608157576123482 -1.3712652917481176 0.06595599581224246
C -1.954765620443114 -0.6828453005182958 0.8497196079285111
C -1.6130156138985554 0.4803278076828079 1.6026073515097925
C -1.775106376055399 1.6420534899700339 1.0268463072520397
C -1.9800548396098931 2.751205298011083 0.351952803776651
C -3.1864966612049668 -1.152809046567 0.8546004819082986
C -3.519854071732519 -2.3562300443623103 0.06986291858350806
C 0.8456745661716014 0.07621862456389288 0.6112942411355222
C 1.3343584544471208 1.0215625149016798 -0.16194631246467972
C 1.8930990772324878 1.8648375295642319 -1.0084214669127385
C 3.2547906749801077 1.620751239075935 -1.332621023748134
C 4.110300091811742 1.5989471817992222 -0.32742276082532384
C 4.884429018689587 1.5963797335796204 0.7370748002565455
H 1.2344947758700762 -3.5767392270198184 -2.1650202185462346
H -0.46249811194951823 -3.2142043651030696 -1.4205490381937442
H -1.2362115099899404 0.5518282028856163 2.597331995778941
H -1.1423303760063916 3.0803901744423685 -0.22046827715060233
H -2.9430104494940594 3.171070468477592 0.4620694253815494
H -3.9937390900670655 -0.6909424871474643 1.4200795692128636
H -4.11437193547438 -2.1019349739106534 -0.8410427588557435
H -4.21003476816894 -2.993752750205691 0.6960969372915439
H -2.610464346457592 -2.9030349068297197 -0.21582462223517235
H 0.9260189145708799 0.2947164879801832 1.6384001561824355
H 1.2254301582711016 2.619007360145185 -1.330813223204007
H 3.7111932470972846 1.4481619718452365 -2.275142297055188
H 4.996511663090597 0.649735531412731 1.1928395539970882
H 5.2843846003278525 2.5436185161846816 0.9861364475989602
