14

C -2.805437592921825 0.44308572456828127 -0.12953552088886156
C -1.9360023053117008 0.06561457610911148 -1.0703113343653856
C -0.6666807403104447 -0.6104874029782436 -0.685058625197955
C -0.2716218009377971 -0.4738936362084824 0.716701923899843
C 0.5136824410796551 0.2677618660837374 -0.27276342646767676
C 1.8637262063320068 -0.12451767313659066 -0.6990819039255612
C 2.8873713381243595 0.14181476902940654 0.12113566487809736
H -2.574076005167449 0.24952676226205245 0.9299942804299006
H -3.726277994735507 0.9345449859395658 -0.4227259351802792
H -0.3775383052984292 -1.4762861580214701 -1.3197913827319916
H 0.14049967702990054 -1.2984975356293889 1.327137090604095
H 0.32211797814551024 1.3774774612490817 -0.3113106651971581
H 2.751753374113676 0.6354709822320569 1.0852769038822356
H 3.878483729856726 -0.13161472149964332 -0.16231547689696324
