21

C 3.656142452707745 0.6781671750501164 0.2698658840367755
C 2.7882470203662404 -0.1441728692564937 -0.3130414299676847
C 1.9217465220824759 -1.0238970269314522 0.5057512404056026
C 0.6860441614823017 -1.3328481576112143 -0.344344220596751
C 0.05250270590004186 -0.019513124063699434 -0.6339605690646885
C -1.1776958099007042 0.2901663183552718 -0.2729055315714227
C -1.8830684024795756 1.541303064679754 -0.5083193972627663
C -3.0747162567262767 1.3728080932876863 0.03421338274736221
C -3.2249448885896577 0.07225956665949766 0.6296783693057145
C -2.0907433686692842 -0.581055224668278 0.4485321941767963
H 4.256404522715137 1.2917022948883787 -0.3955783830257948
H 3.795190705899727 0.7696858807900323 1.3237868911964923
H 2.4258416197149684 -1.9608849719405759 0.8185642276709365
H 1.5579825599126278 -0.49481165872369437 1.4216063161657793
H 0.04169594937593384 -1.9730625491775813 0.269945242454434
H 0.9957887165391334 -1.8302534820387968 -1.2758674576172135
H 0.6152492290046039 0.7520926826356905 -1.1753188130672856
H -1.4936995386027498 2.4208649396510706 -1.0252921539687543
H -3.861938498696303 2.1327667171951226 0.03364874581352985
H -4.103173300587041 -0.34987167226731497 1.152290195478198
H -1.8828561014493193 -1.6114459965135788 0.7903953329040848
