26

C 3.1540640782767753 0.7705772572198812 0.9778834429004656
C 2.252822337352522 -0.17436522007960917 0.7389112935902907
C 0.8287886446355984 0.15730450551150382 0.8414683127065263
C 0.5976659695389036 1.4749162072194157 0.09486137174696639
C -0.8389388383791738 1.6682686470558938 -0.2097413303531081
C -1.229909286681554 2.8859451273821572 -0.5495271206734411
C -1.8044767561874757 0.5719880822826647 -0.14408723949645233
C -1.4146179310354143 -0.6708335928963576 0.13340619822379846
C -2.379801737061199 -1.8016373794120462 0.20534600996159685
C -0.020417455406580038 -0.9204331491902222 0.3691171652394721
C 0.5791903597906105 -2.0940390167359393 -0.22726905431788147
C 1.0170443132288018 -2.183178784020701 -1.4790860504554422
H 2.914681816965563 1.7912247688809948 1.2490205445192033
H 4.205350629036214 0.5185620404308359 0.9002838309438512
H 0.5752305306240033 0.39546606751797 1.916551590662197
H 1.1598461514198135 1.4746215232700237 -0.870122837457297
H 0.989733333672057 2.2974158673467153 0.7269950599515773
H -0.5544694169810974 3.719396764401249 -0.6101292770339192
H -2.2901704453531133 3.050268388318619 -0.7791129708192853
H -2.8719953552168427 0.7346948974340057 -0.31945254348031443
H -2.4898153153590785 -2.263465219771712 -0.7963559259830056
H -3.3970175163598846 -1.4694764219531906 0.5134176118658146
H -2.068416839639133 -2.5505758853230747 0.9753993836016884
H 0.6922795605768028 -2.9905213564112314 0.37792006551115026
H 1.459643644327987 -3.0769455351589308 -1.89010861970533
H 0.9337055242147811 -1.3151785833191598 -2.1455889116492237
