17

C -2.06515591377546 1.386749533742247 -0.1490994260087101
C -1.3520444521777806 0.3672344117027529 -0.5909400694639959
C -0.6703194589251383 -0.5961894522288704 0.3024001174942438
C -1.2244038334301297 -1.9954719416848983 0.16311860303092102
C 0.7747431472673488 -0.5254355218479677 0.0422770011007031
C 1.3488370353985204 0.6567374840988022 -0.09537867549593322
C 2.8101929029776933 0.7012836527974419 -0.35762344314952843
H -2.5656272008967718 2.09410079255632 -0.7923094233285889
H -2.1545162141499996 1.5233251439850046 0.9187589312251312
H -0.9257951440611183 -0.28849005161015445 1.359382516087628
H -1.1305901019628037 -2.4030842399098447 -0.8424918121200609
H -0.7745903864951347 -2.64839914766387 0.9091067071616896
H -2.318484608363038 -1.9250968479913635 0.38996661625965334
H 0.7642033172780031 1.5468896727173524 -0.017460647448040514
H 3.1152023767231665 -0.23102946023689314 -0.8922528970738222
H 3.005633162250039 1.6129383499986656 -0.9593211056086434
H 3.3627153723421555 0.7239376215750524 0.6118670073372792
