31

C -0.0019405834019690764 4.281163671485061 -1.5538479698945558
C -1.2264927421858087 4.035387195202327 -1.1207141833463743
C -1.5745623449829045 2.6771824031296503 -0.7653213818296281
C -0.6991723045388084 1.6721732066647677 -0.8620895251468208
C -1.046320554731845 0.27410323992628316 -0.4998005979293658
C -1.823920598570345 0.31899108241310803 0.7281453925655853
C -2.8089797635325295 -0.5584519838256812 0.8221398080824144
C -3.7006359024620625 -1.5194175019760008 0.8471950429898035
C -3.2351748074606226 -2.798016930273944 1.376699605221962
C 0.1807542468210975 -0.5173591108056079 -0.4201532709127065
C 1.3825231478220126 -0.07045026061502584 -0.6319856969260701
C 2.345007332091639 -0.946478885060768 -0.5286973881462369
C 3.7385661931589533 -0.7176750975114673 -0.7295375468674341
C 4.332935403659167 0.1056653383931378 0.08678771844115227
C 4.844029003439351 0.9480587063787936 0.9568296368037896
C 1.683883636076709 -2.1938646386245075 -0.16691487457445364
C 0.3673147018146172 -1.93761170082428 -0.09974666520676058
H 0.7344414288436676 3.521832389532089 -1.650767671758378
H 0.30736582647458904 5.296683019683215 -1.8351495517132344
H -2.563232208966085 2.4056850187314116 -0.4024441783098954
H -1.6523849549337462 -0.15802434456469802 -1.351077272795487
H -1.7462334828235695 0.9331437465362152 1.5758503091992446
H -4.647079157045432 -1.2375810875117108 0.4751239756536068
H -2.556640675461131 -2.612608955939371 2.2281344610629703
H -2.662503834248864 -3.334261225903586 0.5890997439573527
H -4.08446272177531 -3.439761572261277 1.7500910190725671
H 4.3844739906235946 -1.1336635402519066 -1.471431806093144
H 4.810298205757016 1.9633161250135611 0.6604825655158449
H 5.220307385463112 0.5002393444930592 1.8374965054075225
H 2.1220077053507422 -3.15315028586776 0.01910009040228172
H -0.42417157027576535 -2.6052473657648005 0.1365037070746062
