35

C 5.038126810593155 1.3362553404322968 0.33456768422167943
C 4.743741631898325 0.6178464833233492 -0.7346159901841168
C 3.5909594503280635 0.9296438172970847 -1.6290061075444056
C 2.3999260979045802 0.22772691614815366 -1.1345946138202245
C 1.3774443761674575 0.9776211282955743 -0.7982873742284573
C 0.049350721129146874 0.6160362097769656 -0.2751119696972597
C -0.9661752787430237 1.4402834953722214 -0.15571344983666513
C -2.1504738168903654 0.7243722718490565 0.40967167285712486
C -3.3091608181454633 1.257523954304264 0.6502839057988683
C -4.468680350213073 0.6024915543072925 1.1935806920367051
C -5.574359533198102 1.340985414776165 1.362229247663357
C -1.6597430520949006 -0.6239746437372709 0.5920941227304377
C -2.3870325361396443 -1.8060003771567523 1.1058100370233936
C -0.3695741710677051 -0.6880303919230798 0.19185815156454367
C 0.42426649465232025 -1.9533607953778787 0.2675303155933442
C 1.9029315167560772 -1.742062978463553 0.2596746012088882
C 2.4604837846371805 -1.248715478316204 -1.0542343361304722
H 4.450685850186497 2.1969909372603755 0.6182393724197179
H 5.886315018112606 1.0525099271419782 0.9354085752857884
H 3.440297870583382 2.0016749753011256 -1.7633062706598444
H 3.850729965869415 0.4605740904059091 -2.619937327123747
H 1.4952066514131594 2.0522716640744783 -0.9120836703091955
H -0.95958719530339 2.4738516465321725 -0.4204607081097802
H -3.376912625302866 2.3498624608915755 0.39403463514691606
H -4.449085364742831 -0.4228133603849323 1.4541200630201112
H -6.436123224504357 0.8680493537698043 1.762442749160064
H -5.564466553048778 2.363046019521531 1.0970360674608168
H -2.689846853129301 -1.672785643660807 2.149682243463507
H -3.2468052121759117 -1.9861594121991477 0.3969076853209617
H -1.7297249557539565 -2.7264078010836856 1.0749072945359281
H 0.1351436646811757 -2.6322607417089197 -0.5519904299711902
H 0.198363010323329 -2.4182628120688814 1.2780331270687544
H 2.380113817260106 -2.6989269336639667 0.5274395475988557
H 1.9580984303088307 -1.750311364821633 -1.9072770689688028
H 3.555566377703117 -1.5195449262207636 -1.0418850273346223
