31

C 6.390554937058594 0.9407049183713996 -1.138078867477364
C 6.233320125223419 0.0964135127830839 -0.13169992455915
C 5.4565019200629745 -1.0855734681114138 -0.3017093741889731
C 4.153320849529289 -0.9165526004048489 -0.2533291455693163
C 2.8975782414540245 -0.6551858290565583 -0.20447467956597565
C 2.0986814667030833 -0.3132117323356784 -1.3278489625351708
C 0.8616136190217378 -0.12160725395195439 -0.827238117370266
C 0.8811036064018338 -0.34332149287253555 0.6146088006526387
C -0.2639917153664633 -0.2327786010996231 1.5212332867007963
C -1.4540780075305757 0.09442808692426108 1.055662304038889
C -2.601542320358411 0.21221180985003102 1.9176818524556196
C -3.767556954135251 0.5379087740273262 1.4275762126002642
C -3.967974340088221 0.8010979182403644 -0.030674809913490354
C -5.356997353467928 1.0902873501195736 -0.30945778145086067
C -5.508080137768183 0.037911880862198384 -1.0696895544540088
C -4.126349729630813 -0.38120130828633597 -0.880897271626828
C 2.1303736592922435 -0.6706989469385305 0.996547270082722
H 6.986054461325249 1.8482250594135747 -1.0102031922527799
H 5.954085685778379 0.7747605947174384 -2.0905277769581505
H 5.731346303187404 -2.0880359820578884 -0.46177274951304526
H 2.281555228242442 -0.19323453832038376 -2.3849177724084996
H -0.04134343536500019 0.15286448084039708 -1.3542477998389435
H -0.1791874589932758 -0.4111730452333594 2.5826945314016303
H -1.5662628808551406 0.2790826706353405 -0.008067022738302876
H -2.486443139634176 0.028042894104851685 2.974126548198545
H -3.231579418722551 1.569160367414547 -0.41468411619466783
H -6.069903096096011 1.8873871188625868 -0.015683913431956506
H -6.360646831349888 -0.3841078690189138 -1.6445472502456606
H -3.507036061306062 -0.2913540386805516 -1.8070400865553184
H -3.9822500303758206 -1.3752992243278395 -0.3808854405710791
H 2.415132807763428 -0.8871515064707084 2.0237164233914275
