20

C 2.7595699513178387 -0.29277955476405015 -1.1014504664512368
C 1.7651304431947559 0.410200832537382 -0.611505159587608
C 1.6396140808649184 0.7616910050114284 0.8035156054018723
C 0.268255998275592 0.7836147963764472 1.3306396566561576
C -0.7479469057699698 0.49967742490909045 0.5486139826258423
C -2.111683669731696 0.5532894285900422 1.1970930191094535
C -0.5437663599699953 0.1586426527227883 -0.8494215938101224
C -1.397705796109246 -0.9512419425770456 -1.370085519118523
H 2.813643502514454 -0.5298441477529867 -2.1519963533429527
H 3.539637817214963 -0.6419755012319189 -0.44440835976018017
H 2.2412354611773626 0.03443430426486376 1.40553071134754
H 2.1700498181406185 1.7352325717617492 0.9456412755472281
H 0.13173280884153646 1.0366415396723907 2.3630402324206417
H -2.6953273836778795 -0.3365704095261677 0.823135162630293
H -2.6353224707692973 1.4861438371705074 0.9757215876166838
H -2.0368397587701605 0.4209332106392123 2.2970869408049763
H -0.43936962304828814 1.0086196954185866 -1.5376627808563135
H -2.451742770541138 -0.6796995419511125 -1.5302363237236354
H -1.2779968374040134 -1.831111987803878 -0.7203078508999705
H -0.9911683057571918 -1.2442210280000465 -2.372943766639043
