22

C 4.494313838965359 0.5525826420603894 0.48553070184992086
C 3.523623900542952 -0.19885362333029993 0.9802015396993857
C 2.1570594926406086 0.34701589636541164 1.1405867742984062
C 1.4656087943278437 0.3104614598005044 -0.17854310863082418
C 0.3497949010632402 -0.374821754870113 -0.36409710658638544
C -0.28818621234636005 -0.37419370708987215 -1.6877821715442725
C -1.361382267517609 0.5882204418532985 -1.8490617941569
C -2.4683091838638833 0.3400453134568661 -1.164957811370661
C -3.481723453195671 0.043679993659108025 -0.38555185885645865
C -3.4161433437276276 0.5942058539648313 0.964847586027785
H 4.261670659527087 1.5707294933182954 0.20359768262497954
H 5.503993954532647 0.18271294207247257 0.35587113654190616
H 1.5947614032320387 -0.30916409226231056 1.8325674208417886
H 2.1578585870747875 1.413311869658225 1.4818165731235666
H 1.883827681920541 0.8608435180128474 -1.019814693823565
H -0.04729729527043275 -0.917131266868606 0.49574635459366084
H -0.4522955386750187 -1.3587883496555397 -2.125998980742466
H -1.4332479040045691 1.4710647523615374 -2.4192528521197683
H -4.216389695603813 -0.5607049771306858 -0.8427176497171787
H -2.3995232703068283 0.599187929859184 1.3999766036249042
H -4.025486133138701 -0.0733137896724065 1.6413873667135608
H -3.8025289161769638 1.6330576243009858 1.0556482876086548
