19

C 3.4728071607217275 1.3183365465646744 0.199826472623442
C 2.2162264472970565 1.4682276419273907 0.5950185821646138
C 1.0763140766524262 0.7556444851556878 -0.018353213701209722
C 0.5128217790836153 -0.29775668685050233 0.9443488854478845
C -0.6518773057189364 -1.0180279325690096 0.30279095355901614
C -1.7301398105143309 0.014301853710773573 -0.023869422927936836
C -2.9252453816267256 -0.6277458200111934 -0.6667553426124
H 3.7508748146924935 0.6543134216700172 -0.6101630381310085
H 4.242644875015028 1.8846410556965034 0.7114824757308049
H 0.2507544575454111 1.516170341772207 -0.12338355035839753
H 1.2752637254474302 0.330450633718937 -1.0018095211047182
H 0.1823653886272809 0.17772541183007334 1.8842156890545911
H 1.3124225634582982 -1.0518047653210956 1.0932591656525839
H -1.091033038687332 -1.7464700759350504 0.987710062615702
H -0.28518402389241554 -1.515500229970766 -0.6161951657292922
H -1.9550468483960444 0.6020411008041913 0.8702785344186791
H -3.0491304718567203 -0.37778828736805825 -1.7247796471235064
H -3.814045326152333 -0.3524618392840139 -0.05477109310673775
H -2.7907930816958038 -1.7342968555407714 -0.5866858876850125
