24

C 4.510331285871216 0.4042957420694297 -0.5165392090047433
C 3.5511053185466537 0.8040992338116404 -1.3570592170898104
C 2.287376360804686 1.2550884534015554 -0.5839204754596596
C 1.7208818785609736 0.07682248166981662 0.020371021160009564
C 1.1783856344749388 -1.0670319475984098 0.6292358708493647
C 0.7138763143660153 -2.037090097291291 1.1662667129899815
C -0.4939994088963753 -1.871512622407276 2.1009635667943605
C -1.7606893128123697 -1.9814299755288394 1.5739713333810725
C -2.7373566312978324 -1.353772518069852 0.8216478246360194
C -2.327565764414164 -1.0731516854100691 -0.6082235541800685
C -3.1917506897998784 0.12885043735416374 -1.065608512486938
C -2.8247916695515087 1.257291849335983 -0.52710864633422
C -2.723440106035933 2.59619188372014 -0.23165241300996509
H 4.318839656208138 0.4083608612089826 0.6286301952584522
H 5.490093999814729 0.10198757859453739 -0.8208020781022207
H 2.4575757100211204 2.0027981671341593 0.08857546854554779
H 1.5659912500181028 1.617228901126901 -1.5131643374417587
H 1.5365062433426804 -2.307945301188098 2.1696378440915773
H 0.8672844449352921 -3.0721644851966494 0.7091791690955854
H -3.57635280021392 -1.1227633350766486 1.2214001609715521
H -1.264508183385312 -0.6314609185388644 -0.547998903813523
H -3.920306116092443 0.05576786813946706 -1.757587996801897
H -2.592169684730058 3.2287497201723383 -0.9357812880129147
H -2.785317730285715 2.580789708899842 0.9057168091945789
