11

C 2.0538715876884797 -0.8237715499909232 0.4097840463840025
C 0.7780368331932469 -0.5540908068062826 0.3813253531780671
C 0.34584511762987613 0.8345541944744101 0.4756195596552626
C -0.9275261804499424 1.1985820565403378 0.4547992342654651
C -1.9354433815171512 0.11509730275904362 0.3284274947393702
H 2.768743277525235 -0.0394553638897037 0.5006702528692871
H 2.3839557653707284 -1.838082549940004 0.34146331787217005
H 1.0638183938717833 1.6531698499942689 0.5694145274264002
H -1.9513845793037816 -0.5346761404856123 1.2463517082726827
H -2.965417493044628 0.5046044459882935 0.2068461018862111
H -1.6144993409638126 -0.5159314386438275 -0.5365233722291649
