24

C 4.06112987831015 1.2018628804784963 0.009918972637425763
C 4.460186358476225 -0.060221553363729995 0.0025748329120885705
C 4.105537878841126 -0.9829162959733947 -1.1195775503402268
C 2.6297434414078675 -1.034781304915701 -1.2356255300780516
C 1.8117025778185718 -1.0581912656987602 -0.21073748154895608
C 1.7591951061662707 -1.0525919243914577 1.30370370851025
C 0.5530847742762387 -1.0984452900911552 0.5012173515047448
C -0.7428352176834033 -1.1441647828548556 0.3262825458276715
C -2.0432621017630526 -1.1399172522531338 0.3111057816234435
C -2.744705087596472 0.1273130059197817 0.29674348241339604
C -4.1370402067438885 0.07923301891634212 -0.12302102484194642
C -4.799814901781221 1.2149564259806127 -0.09326071348521305
C -5.3785704031272425 2.3994593102441932 -0.02932482327783353
H 4.3440775845125135 1.8263864011883748 0.8435747279723931
H 3.4723902634045114 1.5601705335854457 -0.8094241546771753
H 4.523330265287403 -0.6262237078339373 -2.0932288372097014
H 4.526343490392885 -1.9683959095946735 -0.8601832842192413
H 2.180856093942588 -1.9426800057216538 1.7978443462357019
H 1.992417171633425 -0.03600650219980533 1.731642432300538
H -2.545788230878138 -2.082478637724563 0.31031954707232884
H -2.1767627378470533 0.9819292519008239 -0.07683737714400415
H -4.714785912574808 -0.7415830455499198 -0.45589531892921725
H -5.300625143027645 2.968376009464088 -0.9165040225086493
H -5.835804941445898 2.6089106404886566 0.8996166271346244
