35

C -1.6449242279405614 -3.1544257117751884 0.12124567384827256
C -1.639353261039105 -2.319957923989369 1.1065095136136793
C -1.2618592134575308 -0.8939701464965413 1.027746328283891
C -1.2806836216867876 -0.21872506624510296 2.100658714077714
C -1.2662008242784866 1.0728236145841095 2.0244238379089654
C -1.9481639985270072 1.6632993249197616 0.9128352664597473
C -3.028249020300356 1.2061402881211818 0.3561262804289723
C -3.8405264829106494 1.6323360907796298 -0.7304046401165066
C -3.636069258711879 0.9963167487939669 -1.8468681651551957
C -2.8937133572152645 -0.08151603291178587 -1.7568394877841111
C -1.5001550657582756 0.2593538375933004 -1.3251180598935106
C -0.8806280210468921 -0.4628061583835508 -0.27524597570285975
C 0.36933625261963915 -0.853304202760303 -0.5209642747216728
C 1.5716766108796287 -1.3139313772709071 -0.7041051128005228
C 2.619386321529181 -0.33834103767138296 -0.44057970519237655
C 3.9622933403220326 -0.7487824060929158 -1.0322635669250217
C 2.826616782269706 -0.022496408685948235 0.9681508921806431
C 3.3464211821417473 1.1603377984771657 1.231306678226914
C 3.868205882967196 2.348050729315415 1.3964100199154739
H -1.934597144236864 -4.17408495801553 0.27208479691641757
H -1.3596071907650544 -2.838609678894923 -0.8622936619360039
H -0.7446579414392669 1.6154119946174696 2.7960869474016543
H -1.5825537451775917 2.544620870962684 0.476738219366817
H -3.397041207852924 0.3272479543723486 0.8334549381782198
H -4.56061420396534 2.4150140660888955 -0.5866907198949644
H -3.1904284854167253 -1.0692203472457196 -1.9480912618352586
H -1.01148818437946 -0.2184815250194435 -2.282507313606211
H -1.1954090286050103 1.2962908630764791 -1.5783052201207914
H 1.6187939674019953 -2.317850327590828 -1.0176939342367275
H 4.551617247377365 -1.2889834545271903 -0.25163675895077336
H 4.511529099091127 0.19247521127151931 -1.2369219850266204
H 3.844952011865817 -1.3297296008987392 -1.9628216199882833
H 2.6244676556032016 -0.597690367924119 1.830347766150894
H 4.92570856221144 2.3778677261776267 1.4075619902347156
H 3.155918568432303 3.1353196132479675 1.4976636006946928
