19

C 2.6883034387229325 -0.0827105776124891 0.8688572322530177
C 2.2320240954303134 -0.34761235044703515 -0.32117568224157667
C 0.831532274194267 -0.4255991575970784 -0.6452726429807798
C 0.4477601653819465 -0.7079332756650674 -1.8834268755553414
C -0.17718441548510047 -0.18811654328512448 0.43544912984619655
C 0.04678543386015487 1.1900591037009007 0.9641349665431401
C -0.3594380196506461 2.2776182694987397 0.3456246999551607
C -1.5514516115457027 -0.3492442433310481 -0.0826287352137474
C -2.3403179737310444 -1.2596505494999028 0.45054726248598453
H 3.7840457170613897 -0.05418785156133589 0.9715789655473245
H 2.046214322121025 0.0900011271581756 1.6963988114903357
H 1.1807119924273297 -0.8789806267872609 -2.646874698400598
H -0.5967202858132625 -0.7580646977505702 -2.089836194615518
H 0.07879319110590254 -0.8827264645722689 1.2560036111366932
H -0.15944907433387254 3.244116283291755 0.7926477069797863
H -0.8816006886079654 2.175108227211147 -0.5918215754944928
H -1.9164149706426525 0.26111327650416477 -0.8834963888833623
H -1.9908794444767859 -1.902003709535312 1.276164902173119
H -3.3627141460182934 -1.4011862397203425 0.08712550497464987
