21

C -4.25795616960215 0.6086723894179276 -0.24397741435864959
C -3.702070955822818 -0.4616659470276599 0.297839379177312
C -2.4015556683453667 -1.021219610091279 -0.1178600286564691
C -1.3183644298166157 -0.45737553884725524 0.7977174101792076
C 0.008050970241457924 -0.9622820099899335 0.45434005424301416
C 1.1045956241179058 -0.22496703546776414 0.3540234263643688
C 2.341754725010337 -0.8774668858907728 0.004878794133121228
C 3.4458551662435823 -0.1723106553259802 -0.10204453410692828
C 3.353964580518313 1.2896370239725539 0.1485937492710267
H -5.215702433118967 0.9281880397724437 0.14228032530379814
H -3.7771497415551694 1.1539540796008478 -1.0487946248849351
H -2.161745456113358 -0.8127882825493992 -1.184148750172324
H -2.4027583914883164 -2.1262273391603865 -0.00945240999600166
H -1.5796921510722168 -0.8433564218836137 1.8231690058356944
H -1.3653090787401372 0.6341921777530334 0.8638317276309248
H 1.1028546580591772 0.8444076877358773 0.5243645241918423
H 2.3644079207383233 -1.9390259815203275 -0.16835985068933934
H 4.3961253708752634 -0.6361313428673054 -0.3642869803620784
H 4.357110950195664 1.7831297178136953 0.08531037337952534
H 2.7185811332213836 1.785381178041843 -0.5933999760606609
H 2.9890033764538013 1.5072547565134091 1.1830667831985107
