20

C 3.169445735656144 0.45982110964833584 0.7048414265310528
C 2.388406801656506 -0.5563789906355482 1.0317297458996975
C 1.4641631537050126 -1.1790980583935828 0.08664261292956907
C 0.1374303518173174 -0.4165408685588829 0.026066616281303197
C -0.024256854357516854 0.6371748843277292 0.7704863608728056
C -1.241074419986617 1.4340067582731268 0.7906783823657049
C -2.218473550736899 1.0438213813256665 -2.4743289131428682e-05
C -2.1476967449908573 -0.11577274489287781 -0.8735911763527441
C -0.9051502914811493 -0.9028785530598938 -0.866405185291117
H 3.115696342687543 0.8381912424003329 -0.3024927002816304
H 3.8547536594583245 0.9270799725709306 1.3929205709277033
H 1.245330345803664 -2.19729023050965 0.40701221013448
H 1.874013854401465 -1.1227383477889612 -0.9434427049247863
H 0.8388463806987074 0.8982527944500852 1.402778779611145
H -1.3440219164719176 2.297000239466092 1.4155080985553223
H -3.179685108491655 1.6089646346607338 -0.03406699357502929
H -2.3202954915508953 0.1811963059236373 -1.9652595800241488
H -3.0270208888135506 -0.805009932825907 -0.6071550681698591
H -0.4928876832572625 -1.060309939836896 -1.9135871512135738
H -1.1875236757463798 -1.969491656544419 -0.522639500986813
