14

C 2.8732080863106018 0.7462910336313249 0.6837498865322842
C 2.3474656737490682 -0.4492492093144888 0.8503940838714488
C 1.4682828486635504 -1.0439134866745388 -0.13679641573443305
C 0.2567461764426097 -0.6364674367458868 -0.3252824068068478
C -0.9967258296417744 -0.2945114851971977 -0.24475441935584993
C -2.3543707720361677 -0.4021919965638324 0.23738936807415334
C -2.021730885811586 0.6386016311187583 -0.7191355838017325
H 3.527641578463597 1.130515798855807 1.4712334011188
H 2.665604215894904 1.3403286589677106 -0.21125682867135442
H 1.837997707168126 -1.8528803008224948 -0.7333091061878483
H -2.8845907015796426 -1.3433699945929278 -0.03483417564949782
H -2.527688792032457 -0.11636619056090805 1.2912103984074843
H -2.222545919347033 0.5970462114613035 -1.80012472417019
H -1.9692933862435775 1.6861667664374036 -0.3284834776264034
