23

C -4.00808154741018 1.5970303418059215 -1.0006254299548907
C -3.9266723403121886 0.48692267787500165 -0.31533234423774886
C -3.101966214507443 -0.647815682703397 -0.7982236405412828
C -2.3384454162988546 -1.1843373976915081 0.34534145543913236
C -1.0003549855607676 -1.2151706619026814 0.3638539773787577
C -0.17612081598711601 -0.7167302408837735 -0.754493340475384
C 1.1059710563785214 -1.396798864556046 -0.7603431660394414
C 2.0637715829778633 -0.8130284664075058 -0.05473168583730594
C 2.9585943223075835 -0.13675166875693726 0.6078112431355523
C 3.6807411127868157 0.8496075944589072 -0.10696095255049481
C 4.614565856959486 1.5896208287095461 0.48782855307195955
H -3.478346589631067 1.6963762359542651 -1.9190186468185126
H -4.609154016803262 2.413429471350463 -0.6408585518639675
H -3.798383938529097 -1.4351814935480594 -1.174836525346236
H -2.4467509676076933 -0.36790931085333545 -1.6529937428503503
H -2.9023021292860514 -1.5613218679079066 1.1890020443919123
H -0.498044935586488 -1.6221355596731475 1.2340670389463575
H -0.07351093422794329 0.3687992071380041 -0.7944256830655231
H 1.4278309179808086 -2.281317195810473 -1.2288921911894937
H 3.036399099268745 -0.41600010946552135 1.6300659568956475
H 3.4987266348637553 1.0378602655469558 -1.1670562863967062
H 4.7942670230890885 1.4037009564006346 1.5337134222776
H 5.177267225134608 2.351150940919881 -0.04916853521246354
