15

C -2.9341585037401248 0.17141265932755803 0.39082676218730295
C -1.7915120452728837 -0.4435943369737634 0.13475000376787546
C -0.8509764713371818 0.092506380623932 -0.8605695827195575
C 0.33524726404824606 -0.8567597711238578 -1.0350441483131483
C 0.9839664953343877 -0.9618089163407316 0.29155784484794145
C 2.0515265221820327 -0.24067497508309918 0.5213163143664821
C 3.085932310982026 0.5904718956418742 0.5370509053790077
H -3.173878262400039 1.0814993304360467 -0.14332507807736436
H -3.6522800545558614 -0.19240907987748207 1.116516322773387
H -1.3782059209633886 0.26066605652674485 -1.8286679382486446
H -0.5117730251066241 1.0888661442985081 -0.5123517787299888
H 1.0113424122028738 -0.47758643038875565 -1.8244917450304503
H -0.053634794251741266 -1.8564065978674427 -1.3028559542019231
H 2.8792033700071062 1.5771952834265317 0.8701252759716132
H 3.9992007028711885 0.16662235737393777 0.2119594914375499
