21

C -4.730101584588153 0.10016544970200716 0.5922702735853355
C -3.521533840166859 0.19214542406411922 0.09199765132878089
C -3.2895078802843964 -0.13007676791256895 -1.3451404888290037
C -2.1024195385724416 0.6857771244199351 -1.7680350326105605
C -0.942395138464248 0.28905189611148274 -1.264450157484618
C 0.051968394643910926 -0.3081821477961072 -0.6727559873545277
C 0.3619487222221625 -0.09667030049626966 0.7535985069208878
C 1.7181519498330866 -0.5343212913561415 1.0961836916949736
C 2.759395537571734 0.039069822261686274 0.5134347572130296
C 4.129321682884414 -0.3225518795001557 0.7846573141521094
C 5.100696248152936 0.30649057079724146 0.15346655650377322
H -5.601323087823021 -0.20729873184525738 0.0013374863217794084
H -4.910963269377667 0.3294346719810987 1.6260895762132352
H -4.188142823845862 0.15979402749139712 -1.9246108749881525
H -3.0816011903114378 -1.2164795009929523 -1.4071645464206006
H 0.6557786813847698 -0.9762374050348297 -1.2490148382298012
H 0.26567298002497947 0.9919634859424179 0.966625218031993
H 1.9068679058838547 -1.311524574175608 1.8100386853536106
H 4.377555949845574 -1.0860314983021415 1.482910998905723
H 4.88762242917287 1.0835543298597146 -0.5591070284872235
H 6.153007871814486 0.07616576581973931 0.31766823817915796
