17

C 0.8064940783124133 -0.5253551095820219 2.713476412266195
C 0.31723386086309063 -1.0350602846264283 1.590242624816572
C 0.6896221573027256 -0.5077335174951373 0.26193346109151117
C -0.2891231924568914 0.4859591053636022 -0.2520212467901267
C -0.5752710922764425 1.7449586007709483 0.4922187166638438
C -0.9452766567625271 0.29314990293429116 -1.389964616924153
C -0.6805389114314986 -0.9509475015071658 -2.151774689111747
H 0.5026324631615394 -0.947214297189782 3.6652292077253508
H 1.5046881256145115 0.3036759622254828 2.723953555792898
H 0.8254302030905474 -1.2864247593799967 -0.5007383582421773
H 1.675438960648653 0.023709408248363643 0.36174468947395527
H 0.27400631858297 1.9346703190091832 1.1779935304551232
H -1.487157810721861 1.646125091010454 1.1363692985932339
H -0.7305789453555073 2.5459770489802263 -0.25257330579337417
H 0.36448911024914676 -0.9715640897995127 -2.4645543941810812
H -1.3444442381319288 -0.9300332447453816 -3.041659709863888
H -0.9076444307034472 -1.8238926342329151 -1.5100067540100948
