24

C -4.082085464002839 2.4354572236360736 -0.6807023296518824
C -3.4238047229853783 1.4962889744479337 -0.032387774633439344
C -3.828661110247896 0.1293107511127634 -0.14320534583698022
C -3.1493512235911263 -0.7920906171561904 0.518760598127885
C -1.9986996984788714 -0.44598901014409353 1.357713205119245
C -0.8176589039483194 -0.9644167719144413 1.1018155577017337
C 0.3480936446671203 -1.2357895152770288 0.600857735015919
C 1.4844420819239283 -1.4188591067219893 -0.012323582470072274
C 1.5527175449267414 -1.7972160073495933 -1.4508845938262742
C 2.7418278536923983 -1.255980691328842 0.7035479540804365
C 3.515226481515406 -0.21599025864178317 0.5936796486146084
C 4.150082106614012 0.9091575972011798 0.4302788313497072
C 4.728565055625348 1.992052770797245 -0.049478243673114
H -3.7679091565881495 3.4722176934397706 -0.5911448211873634
H -4.927363780968428 2.204194671671413 -1.3004122048106947
H -4.664243623147737 -0.1451588306592109 -0.7489900078349164
H -3.4414222881969527 -1.8295626624325847 0.4464000783471072
H -2.1145884946395586 0.23570952274734874 2.1893086294820723
H 2.5098243161002105 -1.4476396253262696 -1.9014620950306367
H 1.431333242408759 -2.8972792832696133 -1.4954136177768802
H 0.7315311022529626 -1.2647315314696441 -1.967308402450221
H 3.063225251284841 -2.040865578016902 1.3703966511500412
H 5.801809365773686 2.06621111740968 -0.016511636277469377
H 4.157110420009924 2.8109691672448327 -0.4765304943226381
