26

C -0.4838110345424915 -3.3685850727173228 -0.14193151650346425
C 0.2221505975097442 -2.40232594649981 -0.30624664830883624
C 0.5351075561881876 -1.0419110916666017 -0.3595565524362557
C 1.9728973655146922 -0.7845966312169792 -0.7303306148733619
C 2.4781229060746304 0.5274096251687379 -0.8334256474596915
C 3.2222126483016194 1.0139337703003999 0.15644521689814989
C 3.905199670780526 1.3939731923229057 1.198349008321401
C -0.3644567809707844 -0.11190982896917565 -0.10479722622258601
C -0.21667915711963778 1.3262821361689567 -0.11367145394281268
C -1.4228965592908442 1.8305063379314823 0.21419197692179365
C -2.3846714865559515 0.7971710535218423 0.44561061023183673
C -3.839712197403431 0.9358083199341951 0.8312717566388687
C -1.7615299304032843 -0.3560493278823897 0.2575977214854142
H -1.555449251018924 -3.3728672487505755 0.13813395728695346
H -0.06568291594723587 -4.413412002200863 -0.27314378493631924
H 2.2124808035837313 -1.4018936757852665 -1.657894238196834
H 2.5362534869694526 -1.3630967028742242 0.06831341571697831
H 2.3787612581911497 1.2476634379585438 -1.634665576346708
H 4.946897249386642 1.1783481982404145 1.1469409593004642
H 3.342731807343771 1.8681038916697148 1.9681660800277232
H 0.6426977323483959 1.9441964349276852 -0.3277966577372071
H -1.62668927724401 2.8935856710412047 0.2900251850799551
H -4.4146539220656615 0.24041153428289194 0.20065621377387372
H -4.1025328466693916 1.9958154522498697 0.6848873472695334
H -3.898516110964271 0.7176608483036704 1.9132060567847502
H -2.258231611996772 -1.294222375459268 0.368677928091174
