17

C 2.9919645136314057 -1.2211592784908039 0.27366101547999283
C 2.244713753662478 -0.3335530110394005 0.8985760855714313
C 2.0721988866268997 0.99343175606197 0.25178224374108926
C 1.1021758086182367 0.8624184345685377 -0.8430067333657865
C -0.1777456381618779 1.006162176392811 -0.5757414147146086
C -1.418867701438507 0.7411324595036978 -0.2984731651304182
C -2.6640913343476256 0.4512771047054319 -0.09563196651758497
C -3.3065295042236236 -0.8112239692481996 -0.5430173138915769
H 3.4632019379199277 -1.0030103919104505 -0.6688534536154908
H 3.1509288769968062 -2.2014171776792026 0.6986832649366301
H 1.80379562531302 1.7799970264124034 0.9853688511773614
H 3.0714005498369596 1.2793270322230812 -0.16417769363806456
H 1.4709833220506485 0.6512080830986887 -1.837982030280004
H -3.291188537040259 1.1594199929978137 0.43016995442013367
H -2.5850924206230914 -1.6001021620783271 -0.7844428317925026
H -3.9740874172475813 -1.1376136899480755 0.2760380238606722
H -3.953760721573844 -0.6162943855700108 -1.4385786570676475
