19

C -2.2771681872325615 -1.7649731590236821 0.004870180063169196
C -1.1702350803714705 -1.2851907567120757 0.5261905379863273
C -0.7474817396423339 0.12820953770192187 0.3854329849307626
C -1.925178509353692 0.9621995961824119 -0.04830987484543888
C 0.3386187645095555 0.22511198686975883 -0.685168143088786
C 1.5142924619966494 -0.5708402628601923 -0.35175235022270823
C 2.6727146939587363 0.04548222134078871 -0.3300699255314895
C 3.770721839643992 0.7361623336209455 -0.3837560680667383
H -2.968940376103926 -1.157273897633013 -0.5716550659764639
H -2.532585919443167 -2.7965712866860146 0.13899477381918526
H -0.38847977460121974 0.5069908052877935 1.3532460042024088
H -2.7825596736236844 0.8277294111762858 0.6265957833324792
H -2.266617073273281 0.6920694208014345 -1.074467215406791
H -1.591751542574426 2.0230518960527824 -0.0285235025499986
H 0.5639191381869657 1.262399369851922 -0.9266519267356306
H -0.11447315374374391 -0.22182277885375346 -1.6116194313593353
H 1.564287079401259 -1.5897924653649929 -0.12185094477221653
H 4.062727873216372 1.19878528517914 0.5054227552526842
H 4.278189179049967 0.7782727430685016 -1.3129569329349318
