17

C 2.567816385220095 -0.11194171104801656 1.3062741129139182
C 1.3136906231841317 -0.22006111803145637 0.897152697837659
C 1.0385011681972072 -0.5450121100822256 -0.5077761096854223
C -0.3908225220646381 -0.23861788693327224 -0.904330703283858
C -0.7431404881876442 1.1663355468529057 -0.743791370600601
C -1.7800273005911855 1.263033706396697 0.05615797052301017
C -2.164022627874501 -0.08055252954410072 0.46427835775788767
C -1.3672567637001 -0.9713360189322539 -0.0842047724021963
H 2.8450222561462577 0.1249956802614265 2.3268387769943795
H 3.384820973878868 -0.2614198607022029 0.6125556728501748
H 1.251471887452826 -1.6044749469613062 -0.729630478916186
H 1.6780047217479739 0.12801065835554107 -1.1504210691232755
H -0.574841519675274 -0.5453475192725237 -1.976257893248473
H -0.279333938499966 2.056460053911063 -1.1772949850764831
H -2.297440260999943 2.181195884499163 0.38479668889836754
H -3.0053192995455635 -0.29962748114872684 1.1374462404630863
H -1.4771232946885458 -2.0416403476207403 0.0882068640980387
