20

C 3.8583727371970333 0.8580549139336263 -0.35117383153759274
C 2.7609391317186427 0.36694753420925835 0.17856869825277064
C 2.431318910979314 -1.0535404489904325 0.1590379968941447
C 1.3020782855693156 -1.4511146608930683 0.719255478815414
C 0.35623779724474586 -0.5878986444450285 1.356357931723749
C -0.8838524433010365 -0.6817378330308127 0.9215880320041931
C -2.071655783441915 -0.7874447605945182 0.3678280722319485
C -2.3089120217322057 0.08124334425985313 -0.778799276726525
C -2.754921814670488 1.4483016623318556 -0.24949949147423708
H 4.032497126394614 1.9151144213106437 -0.2978144622742753
H 4.588691132342553 0.24016031607832325 -0.8362758481461571
H 3.1062857416016536 -1.7499944851094 -0.3069028199727992
H 1.0798042211663557 -2.509538361166012 0.6919794104286076
H 0.4714676395630944 0.12289368107410774 2.1224497341979514
H -2.698788463057137 -1.497140010298775 0.834605836820579
H -1.462225830814997 0.21473541575274696 -1.449355170780895
H -3.218494643072461 -0.31859307181501195 -1.316043688178975
H -3.7662703370928234 1.359809347387052 0.2352511024186566
H -2.7544704265680653 2.2122727179690975 -1.052666355303472
H -2.068100960026314 1.8174689220366502 0.5396118295608171
