19

C 2.942721437195348 1.757510584553627 0.023248436330676952
C 3.0909138420295617 0.4818355496547692 -0.25234966837532613
C 2.0121506982357356 -0.41712167329403027 -0.5468782257238994
C 0.7680621132009038 -0.019634420367055927 -0.5626116077721465
C -0.3848865198153187 -0.9067395529525234 -0.8607540160704791
C -0.5869166525645934 -2.1950105437611267 -0.21793738550580852
C -1.4147335855193255 -1.0157872164568784 0.2675510792187164
C -2.3340541287425585 -0.5038311163216804 1.0720758494073626
C -2.656201777031475 0.9418457680694109 0.9327592070043664
H 2.034052955143985 2.312497231353125 0.07157361440943721
H 3.8562875374578804 2.3357544370409107 0.23132620904737042
H 2.229773705666157 -1.4438995726513646 -0.7603191442024947
H 0.5479391869016015 1.01619071750411 -0.3473351612469842
H -0.8997007695149905 -0.7041397147710551 -1.8221151445184394
H 0.1338696967382196 -2.6147322493817646 0.5094423333823755
H -1.1411894014151978 -2.9799169057705024 -0.7723031601887498
H -1.8310252380650869 1.5877496390400465 1.3454186852840426
H -2.751399740527624 1.220358048665595 -0.12530954332988511
H -3.615663359360654 1.147070989843762 1.4440213312746772
