24

C -2.9298769966680864 1.592872324096833 0.6222781243138884
C -1.9503639529516847 1.0792510099930293 -0.06422166334414817
C -1.9672614783483477 -0.23131440303029266 -0.7436227576880992
C -2.7155292494172083 -1.2769137610923922 0.037322486146699335
C -0.5783388368188079 -0.6720577974136772 -1.125634379305152
C 0.32951315776754625 -0.8151313724094015 0.016391083576368377
C 1.4283716239072635 -0.07743094562164211 0.054677353872187605
C 2.399073987245188 -0.17077676260148072 1.187769442772456
C 3.772577254729891 -0.0007410912652397627 0.6511195128551769
C 4.066488264513374 1.082761366994424 -0.0430395146630596
H -2.82926094287534 2.562485615294338 1.0873865293760658
H -3.86905841736947 1.0701403962065459 0.748646549849731
H -2.5274497831115763 -0.08638864514470689 -1.7009198130603587
H -2.535114193057185 -1.2135944676600279 1.125784646006588
H -3.802637136106451 -1.0757581582284703 -0.1058655931814882
H -2.482849046348725 -2.2623527077459453 -0.3926130509178622
H -0.1840338854283806 0.05311714999665588 -1.8549600181552202
H -0.6102036922570262 -1.6517790917839779 -1.656907495618603
H 0.17266882945937426 -1.4879528534739612 0.8482635975721344
H 1.6702354915249835 0.6373091626885442 -0.7519236933329398
H 2.234315162066584 0.6200990689687779 1.9397022948676286
H 4.545108411195408 -0.7416768672157592 0.8121301508250082
H 5.0670054047481425 1.2393637432880695 -0.45207261106938723
H 3.2966200236003065 1.8264690871595481 -0.2064290191973418
