26

C -3.8843281344873315 -0.014550350042379376 0.19978411482252112
C -2.616521071028459 -0.027692535227789684 0.6100099760315291
C -1.7569981569497775 -1.1729510603965925 0.14533646276812906
C -0.7644115956687737 -0.6572203547460981 -0.8700183024424623
C 0.0917785522579689 -1.7719886809784522 -1.3418304047150953
C 0.6777920104453705 -2.537583035188019 -0.43409974581779115
C 0.10867420064907647 0.37371794146305715 -0.21396594979740816
C 0.10230559480185196 1.5952891872524666 -0.7208909209452615
C -0.16194833636801595 2.8598701958947035 -0.882483735679973
C -0.6020419897310816 4.074554839059001 -1.0242846264966043
C 0.926162867719039 0.04028484085610631 0.9309965380946351
C 2.2132821423061024 -0.005528038481437955 0.8365215085333977
C 3.462429587939237 -0.3564785347349338 0.7218413490393665
C 4.716602105685159 -0.5898378325665312 0.45679011395787955
H -4.305957400116489 -0.7682452314449689 -0.43215948290824374
H -4.482174840328639 0.8354025712610367 0.5578811937639564
H -1.2543427591056069 -1.5436788305165356 1.0581767203741834
H -2.3737551179646665 -1.9643630474499718 -0.3455298288379657
H -1.309610433930761 -0.21618227170008628 -1.7314460869407704
H 0.5466648688901624 -2.368950547693348 0.6288579972674495
H 1.3151630764674331 -3.367525175781437 -0.7638923823697155
H -1.2710637406845093 4.330783984885627 -1.8246215524310938
H -0.3096202914060531 4.8587491358561525 -0.34491618666244384
H 0.44889769650075056 -0.16989612600081042 1.8656029855873733
H 5.495894926185758 0.1577966674521487 0.516957445756534
H 4.987126237922154 -1.593777711031025 0.15939136091961664
