20

C -2.5374981725389025 2.1292712193348664 -0.25081231449899194
C -2.3463732190419635 0.971581720533233 0.3495551197224273
C -1.7254968088706053 -0.19061285050365148 -0.33828610294029676
C -2.3569812766900573 -1.4372192387267801 0.2214553341757595
C -0.2693602101939278 -0.1513709724577935 -0.20723589947825868
C 0.5264616109581043 -1.1680088031043276 -0.08636609852939076
C 1.9573460331729555 -0.9855405786946964 0.03558072554314633
C 2.5090936550205654 0.2140327428460676 0.02903106740431766
C 3.972040465520103 0.42865453166457584 0.15238480240834457
H -2.9835629818615557 2.9511767285361192 0.25663594680145757
H -2.2293580199234335 2.2320513330049057 -1.2821294723993888
H -1.9699180187799854 -0.120599368473419 -1.4249692859658767
H -1.9030865141484106 -2.368856430126198 -0.1324480728270483
H -3.42065727483437 -1.4434289425669355 -0.14930321191243062
H -2.3614771517930255 -1.4027489751555853 1.3364935953464854
H 0.1269576293714134 -2.163270827139638 -0.07561168940651876
H 1.8752422590532025 1.0606821264143984 -0.06899893005754273
H 4.456230457834733 0.647561382843344 -0.8267353427504242
H 4.470645460146847 -0.5018548060043585 0.5347504567031605
H 4.2097520775983766 1.2985000077759357 0.8028081334587239
