39

C -6.6319730177245235 1.1937962858695939 0.47560871913425734
C -5.6690743624081374 0.45499706128154194 -0.042916406421297064
C -4.4086113597766445 1.0360198861920404 -0.5598631528765001
C -3.2512300915835595 0.414390148545115 0.20744928512995323
C -1.984157100429048 0.971927082919264 -0.28368628393092454
C -0.749190718170185 0.5025636169653577 -0.2093868178165577
C 0.4292229564411298 1.1956072474392736 -0.760458932988041
C 1.6340042071702419 0.34351402022153726 -0.40676588518145423
C 2.9937834080751617 0.7388494739369476 -0.7461790215023629
C 4.105291452416228 0.1440684979848855 -0.5164279033759245
C 5.375796152011496 0.8340542635119063 -1.010911235295037
C 6.225945641070515 1.0887914100177392 0.20578691146591988
C 1.2153767677675906 -0.7376021674822166 0.22663168909029383
C 2.055572005545581 -1.8434765053703088 0.7508958756334201
C -0.24559521166882675 -0.7247628555331682 0.3911167157033666
C -0.9928052685768763 -1.6352635738000785 0.9573726238245511
C -2.457402423459934 -1.752948927367881 1.1767316962386194
C -3.2481920351601046 -1.068594428310495 0.09031921894206178
H -6.488218963364666 2.2604411766831807 0.5212144516841207
H -7.528654937926182 0.7139519938193032 0.8364114701449756
H -4.418086694871854 2.1298160756064726 -0.3855708249720053
H -4.261517746653529 0.865923938413905 -1.6408966230812716
H -3.402954854893596 0.6469301446515944 1.304062289964705
H 0.6148658274987491 2.181758694959758 -0.2958407543634732
H 3.053490332507617 1.7100164826053745 -1.2882434395102167
H 4.266290991682666 -0.7927181421833273 -0.011698118772601086
H 5.120821865880835 1.734049549393545 -1.5796730063021547
H 5.849141653702127 0.11962563934940074 -1.7161493837794544
H 6.260455913797603 0.12665110558096343 0.7757982208089227
H 7.228399080201127 1.4375698880042376 -0.042263782365805885
H 5.654998079948257 1.793787629406332 0.8562339803472832
H 2.631055096465228 -2.3758640748577946 -0.03638411101304754
H 2.7612548867115647 -1.531015191562091 1.545918423004519
H 1.4182251021887806 -2.659465893118116 1.1983112812348784
H -0.4753389660512159 -2.484111301867921 1.3600245196228493
H -2.7902317584380008 -1.3425023384334624 2.1482196403522797
H -2.7149662200322573 -2.8283026302655196 1.1050906721881129
H -4.296592734985385 -1.4277741151704983 0.18225694693097647
H -2.879196954907868 -1.4346991680362335 -0.8876503432569881
