30

C 6.231929164020047 0.8400874289851745 -0.013362266743305729
C 4.951053855172613 0.7737781832989153 -0.3422797508183182
C 4.337158568427453 -0.4325719612563569 -0.7800226989527455
C 3.284548118763145 -0.8275102047022052 -0.0872370933180866
C 2.190785517007224 -1.072922076987501 0.5920115289448606
C 0.9836494540274552 -0.4818480820044037 0.1043436049940883
C 0.624150877001334 -0.23091705979789942 -1.1275177789859239
C -0.7231538717004031 0.39555165314851465 -1.1868250999346186
C -0.80070493200083 0.9993120644321618 0.19497851779179012
C -2.152636689047239 1.3620203305517606 0.643870662545772
C -3.136712434451553 0.3148539684003102 0.7295374493116427
C -3.976527623441246 0.03809559012642126 -0.2582857673627766
C -5.000411674071317 -1.0504195459270182 -0.1709067948583445
C -0.12125581052690973 -0.0370752073162461 1.0301785853326164
H 6.883667912402783 -0.03636563866655467 -0.0630541263766965
H 6.654362021137837 1.7945912858413278 0.3175240046868664
H 4.566834028192077 -1.087688955846789 -1.5721790042470056
H 2.3319776383243287 -1.6866140374249423 1.4333133826626723
H 1.2354033122939687 -0.4540641713837481 -1.9872488103536385
H -1.4610204377984266 -0.4337086416141499 -1.3231302178428956
H -0.8076750697686781 1.1626061068870788 -1.9573631155302011
H -0.16063610298073075 1.902182044196174 0.18709001086332663
H -2.4897924154710958 2.3735723522258176 0.47236493611766706
H -3.2163061997373905 -0.2867835472681331 1.625491722881077
H -3.9423010841271293 0.6090756436979708 -1.1806001501768772
H -4.742428378359111 -1.9147110691079516 -0.7986558562225647
H -5.09470626210894 -1.3374279428865214 0.8967073510198034
H -5.991110022928847 -0.6138567305593597 -0.4680327680198014
H 0.28854710463453564 0.35923954291829335 1.972334579096105
H -0.746688562885618 -0.9404813219601633 1.1879258313223147
