27

C 5.403477152009186 1.7495288932787705 0.07224869703925403
C 4.144593668492661 1.6752992220114262 0.47685335199277223
C 3.550699576206836 0.3884746655466725 0.7281505540928
C 2.7009836007785504 -0.02575976234617106 -0.17561075411203503
C 1.7841094352095506 -0.3289855820375256 -1.0820537970556716
C 0.4665178549495218 0.14578533925711476 -0.8032552988558513
C -0.46768408332046935 -0.7173910718783951 -0.43057526076147057
C -0.19403871284197768 -2.061580562551882 -0.30679103757797077
C -1.1626530601230787 -2.956326697443824 0.07957075969643948
C -2.418598341693433 -2.4556228750511155 0.33828876155356147
C -2.726255802393097 -1.1253991769354639 0.2255284265174665
C -1.7610895646172593 -0.21038834057489195 -0.16287983894731597
C -1.9092804557609317 1.0322170305461684 -0.30499761464831937
C -2.795235555941528 2.0907063503073315 -0.22538180164135005
C -4.06759852338758 2.124441494192969 0.105768471576887
H 6.026713455703121 0.8621679653325425 -0.08345440141401497
H 5.8973655385386134 2.6944239989634733 -0.1306797677003435
H 3.6934577975423686 -0.2760807762626529 1.5326625848676616
H 2.173445687771938 -0.8831302466427539 -1.8853134264922184
H 0.2517860399162807 1.189515502131149 -0.8987708498430382
H 0.8253832424860633 -2.415655846595827 -0.5244148620538122
H -0.8976558933690768 -3.9924005108052874 0.16069455133356741
H -3.184440578906084 -3.153143679976338 0.6423239097622901
H -3.7281448673906974 -0.8091601098806946 0.44404878577471024
H -2.352671345442373 3.1063150206311856 -0.49042678117134664
H -4.642838724888296 1.275153282274605 0.38157930040652294
H -4.610347539529939 3.0769964745095435 0.11017715161274531
