24

C 4.648631883133372 0.7067600515100524 -0.4992410552714923
C 3.763868107406534 0.5167323350837171 0.44782770784479087
C 2.848995047713512 -0.6584353774744315 0.40143961129597183
C 1.4832490381650274 -0.2874491914406092 -0.022550248160522604
C 0.4449127557799475 -0.4986805258522304 0.7601856978269708
C -0.9215884538572994 -0.13955076570122993 0.3629796534878373
C -1.7426356784555497 -1.135895657340486 0.32997056810234127
C -2.347945328895018 -2.3249835506471794 0.24551325938896362
C -1.3558979495816812 1.1665958775507166 0.015062922715010316
C -2.714697690394089 1.5237872731504674 -0.304694723414894
C -3.835102084252363 0.8766227209349114 -0.32027194695947925
H 4.739865541332377 0.026723747116350394 -1.3301438752317414
H 5.296371528345152 1.5707313469246758 -0.43291105101002175
H 3.2642311174431105 -1.3997150488777688 -0.3381634372607798
H 2.8372996144317955 -1.1114965158623802 1.4210601465010986
H 1.3429603384213349 0.16405032511365686 -0.9922384931133285
H 0.5802004827402459 -0.9477619013476952 1.7259443769084641
H -2.208163266120622 -2.8099593607882714 -0.6708463247619595
H -2.8645158317956705 -2.549480958756966 1.1311530003696397
H -0.6629649511560208 1.613454551660191 -0.7892291143279156
H -1.0546404332866053 1.8481713733498326 0.9015494385703242
H -2.839531169832243 2.617806249638282 -0.6138968729930332
H -4.766982377604434 1.3768824648337261 -0.6076675769328024
H -3.935920239680737 -0.14490946277724448 -0.05945429101669611
