23

C -4.197567504126116 -0.15726415309851932 1.4805032351522442
C -2.9448327885666408 -0.09320878963818882 1.0648398820268903
C -2.5464946039342973 0.8163470596409905 0.015371088140480773
C -2.214694562494553 0.3917289693747281 -1.1671728894322937
C -1.5643444026730922 -0.13488386936854654 -2.1934505861534777
C -0.15969020595510033 -0.5088312421330754 -2.045522902984321
C 0.22780895667954762 -0.8809021473250538 -0.633707912732555
C 1.6693410607003223 -1.2322766741422686 -0.6468080619029576
C 2.6165502763869295 -0.6426396677705797 0.03598337643815064
C 2.4560488386141945 0.47346900119123164 0.9451450017069902
C 3.484873923064458 0.9860489930285165 1.5786904622191356
H -5.004617081151434 0.44206424116071197 1.087433696244614
H -4.439545308554502 -0.8554919661822996 2.2683204748948427
H -2.516413894407247 1.8660989540126214 0.20640786651605753
H 0.46164173268372816 0.3216594603117934 -2.436122865005604
H 0.03825751458645994 -1.3827147630736818 -2.7204737071319753
H -0.3671286478487324 -1.7024499433376263 -0.2272342007661264
H 0.09218388022929509 0.02190540741045854 -0.013025708488170196
H 1.9565905496963392 -2.0729608840953406 -1.2988099629333847
H 3.646551578679005 -1.02034389464747 -0.08026348304415858
H 1.4830802749934135 0.8918038710814674 1.1076904524911815
H 4.460974240962418 0.5558007824121499 1.4073319906958663
H 3.3614261724357344 1.8289628503292585 2.264874754048065
