28

C 4.077830404080989 1.8294736310231554 2.0453837959616155
C 4.275902283914839 0.5874579399377327 1.6378511255285446
C 3.1993328999622723 -0.41486173805311594 1.8369491570198042
C 1.8590482491540545 0.19644809621636342 1.6577906653327124
C 1.0457779171500343 -0.25859641896695335 0.7162445433115182
C -0.3005340234459161 0.34627648150261264 0.5281443944395329
C -1.3641156593674129 -0.4404809296094013 1.1634056223745028
C -2.2764810523898515 -0.7842860458236064 0.25839303927245894
C -3.5228758695443187 -1.4709992975608568 -0.028615900807384013
C -3.857929035039813 -1.3778052878607696 -1.2974982118267977
C -2.8338947512021173 -0.5920412218108703 -2.01041950423364
C -1.842625360206363 -0.22752112567144492 -1.0059712530424976
C -0.6981624024276972 0.4377836207736122 -0.8798398965035271
C 0.05837169509601743 1.1531345289104615 -1.9528086937822067
H 4.857734499349653 2.5668050233260558 1.904097014388843
H 3.1746799309077565 2.185227257192758 2.523086310030035
H 3.294393678938622 -0.8345206081454499 2.8722751290473174
H 3.310679159255937 -1.2883186213365703 1.1601128146278434
H 1.536376346232272 1.010363555045039 2.2888650888810718
H 1.3887585877000976 -1.0765040257392806 0.09391354673134597
H -1.465555553144899 -0.7418248512535204 2.218586209769098
H -4.093802662824345 -1.9941667488233703 0.7366644108982735
H -4.772391878093271 -1.8251169436490144 -1.7513996907224452
H -3.3815572936600113 0.30884526658898953 -2.4230367277880585
H -2.4103029876270727 -1.1427952077500012 -2.8776059754472203
H 0.13086374659603683 0.468049290895128 -2.84306965701931
H 1.0767251122326018 1.3041128230193983 -1.5973946986391843
H -0.46624598218001273 2.0758615584472304 -2.2813053786282267
