20

C 3.4253167691994584 -1.0955177913283536 0.84610387594383
C 2.997749068420593 0.0734856963751689 0.4387158372009813
C 2.209625108200844 0.35075001978249787 -0.7604878474252332
C 0.738227297489638 0.442852178282489 -0.42054004659598493
C 0.2536508857360233 -0.8159429622382799 0.16469079016727736
C -0.8978091982291074 -0.9219576402008913 0.7787617910245302
C -1.830413327236486 0.23259402070964635 0.9422565549242271
C -2.991845667928516 0.11651711138003384 0.025640268648985186
C -3.2155575253273203 1.0590767440242996 -0.8715183857369155
H 4.006299144332716 -1.11805720911752 1.7735359759534457
H 3.25750407356708 -2.042467856095803 0.3505926991397266
H 2.3767099335007438 -0.41077032945141206 -1.577861018498924
H 2.5475828320606344 1.3327652417348588 -1.1740527345861873
H 0.12374326670671935 0.8511681096109098 -1.2203124806652572
H 0.8809245464963582 -1.6967668173755692 0.08280583564704427
H -1.3332666565179017 1.20555436607681 0.7724071256275123
H -2.263479620117993 0.22258555382283804 1.984117301685553
H -3.681607835108658 -0.7190231592345526 0.05377183499421485
H -2.5566020203521442 1.9078282497187442 -0.936133311110713
H -4.046751074892092 1.0253264735205738 -1.5643548757179757
