20

C 2.2743846547166893 1.5675859967212673 -0.6306234954729903
C 2.5974195316736903 0.47502372703519335 0.03226824369892877
C 1.72438476768871 -0.7303610883697667 -0.011288092442039054
C 1.612907271980272 -1.601440518353651 1.1712350804966765
C 0.48491550919083054 -0.6854835565809999 0.8053789163111186
C -0.7645580713261012 -1.3009435946580927 0.3078882068058156
C -1.8287104920082928 -0.5918436280443962 0.12079630594052472
C -1.8624161829698482 0.8344267299392228 0.3828281893096383
C -2.9672332406933624 1.5533866240063763 0.1874835949579333
H 1.3642573076362776 1.5872912823397183 -1.2125436200353017
H 2.916843243780641 2.448446895844711 -0.5959892442596322
H 1.6901245267872682 -1.249441479585462 -1.0111691763215878
H 2.216125654292774 -1.4203293113982225 2.0741548501055784
H 1.4092311746159278 -2.687975818726818 1.0100333493170797
H 0.3984499317196946 0.17923072190099554 1.5304600697363346
H -0.7692014418381259 -2.367986398138138 0.101730828583085
H -2.7273944803738046 -1.0685751982812233 -0.2425101348743287
H -0.979354991391953 1.350773103147274 0.7429906004873478
H -2.9263337599182466 2.6040079855470166 0.4002876326165826
H -3.863840913563318 1.1042075256550663 -0.16813029129885104
