11

C -2.0539866207109676 0.1910197105658925 1.0706587840593818
C -0.7733673923691984 0.06308720537634675 0.8233511394236516
C -0.2028773967246329 0.1527012787863915 -0.54672972179224
C 1.1762747038941257 -0.2871967861093257 -0.5638054907781308
C 2.0782706400261857 -1.1758492907666274 -1.0706363074039573
C 2.565481385863854 -0.2605761131381479 -0.19368212036435692
H -2.7329389838725113 0.37023237844604623 0.2444693563324162
H -2.406450581803679 0.11533337281640678 2.0918799434837734
H -0.8439169919366862 -0.46807410063063587 -1.2126323156060643
H -0.25712277421273727 1.1836694543760686 -0.9528094613639214
H 3.4506340118461143 0.08111321024874056 0.30993619400934336
