28

C -3.0648822140011545 2.3432662967300097 0.27266046338842304
C -2.1676787182131605 1.499799990392548 -0.14795459360648672
C -1.3225788935354708 1.7002061443881902 -1.2939244565369987
C -1.4025310002965181 2.791572824594576 -2.0223550143512585
C -0.3457852615764529 0.6371824234367484 -1.6425348763421477
C -0.5118170269318182 -0.599770172900306 -0.9163411163072862
C -1.6636269248594684 -1.183244896279151 -0.2738565447189469
C 0.5934992676568628 -1.2904602150475866 -0.8272315183626323
C 1.6299178707284212 -2.0307481374277505 -0.739617796693269
C 2.533231160544821 -1.8613715463681142 0.31992032030459594
C 3.6063549716742087 -2.699389419842613 0.326715303644246
C 2.4823103243965474 -0.9369944016249848 1.3834862245015023
C 1.5181769515771681 -0.10577217758553088 1.4691844067279454
C 0.6439785485879056 0.84595981146745 1.734055813372207
H -3.249702951477857 3.274771069198045 -0.2117643558588032
H -3.6334403520878467 2.0482805707627776 1.1643694983327184
H -0.7417616279178243 2.914641252505182 -2.8930272447034957
H -2.074634618012096 3.586752746596536 -1.830398204413817
H -0.4124059931215608 0.4422371654238248 -2.749288388848653
H -1.6060353943303796 -2.275550975060618 -0.15249407880825974
H -1.8949270850513018 -0.778739138895433 0.7478373811462324
H -2.5536197093113313 -0.9950315987162546 -0.9081714911908189
H 1.704644446328283 -2.7589474836596306 -1.5482745876678647
H 4.306316447437416 -2.59000535129106 1.1213369098865231
H 3.668523425341884 -3.4039128502854643 -0.46313340950526755
H 3.2245793336988036 -0.8558973176936396 2.1851199875558827
H -0.16547352175025792 0.5052538392118597 2.3138468816626485
H 0.8993685445022465 1.775911547970174 1.3175389566414268
