30

C -0.7927088820147572 -2.9764151897695283 -2.2294182823168267
C 0.13732616432293396 -2.241535560844386 -1.6764548207956527
C -0.19199072332641892 -1.1538262825405696 -0.7870726526843815
C 0.9007137111014215 -0.555078341282832 -0.3534061852570568
C 1.9535247219463479 0.16989160585308064 0.0025553730276716706
C 2.301405874039699 1.2498381051515268 -0.8849240129427559
C 3.44264968474315 2.0454565020261657 -0.42561263498079893
C 4.152743618759257 1.539148634287731 0.5442562046936251
C 4.811036105120844 0.9554478366946348 1.5230772091775306
C -1.4219264577797972 -0.6651970408680243 -0.3426555424748279
C -1.4484058722078512 0.34620244398886485 0.4713038432364035
C -1.4179869111172811 1.444036437714447 1.2016743936228307
C -1.4474246597309222 2.687074253497473 0.4619617297396768
C -2.754172994480783 -1.1312834608164655 -0.6632233117023387
C -3.357260700156042 -1.8199571677027928 0.27235380111155794
C -3.901264667716594 -2.5046751591604783 1.2587328498226806
H -1.8501067182953783 -2.826569572222568 -2.0648062730012917
H -0.5390297130268769 -3.8067503187744776 -2.908464653992972
H 2.3641986429897273 -0.17998888199498322 0.9026337856240919
H 2.4802992650646423 0.9580278331307108 -1.9410729593073268
H 3.775845884741309 2.983115697035216 -0.7733648058752349
H 5.595291290626255 0.32113290650711657 1.2072937093500662
H 4.465596226749554 1.199560842454772 2.4917921460258174
H -1.3737632595642113 1.2366546481232172 2.2291002473518553
H -2.3199221114137223 2.7295267783856136 -0.24010649407109563
H -0.49182037566994224 2.9130181737610736 -0.07127715835331333
H -1.607733994407154 3.5338586912896375 1.1782274945065692
H -3.3060655517983055 -0.9917936036439118 -1.5484146097377058
H -3.708207257436878 -3.5427333597856565 1.2230051466005303
H -4.450840340063182 -1.9161874504951926 1.942306463602744
