33

C -3.080591371979645 1.7141646975961726 -0.730864580035795
C -2.272549654700307 1.7255467826126485 0.3125128830410508
C -2.0738236517242843 0.5825038430465009 1.1199984140059287
C -1.6099059468566246 -0.49379894251918344 0.4929884671287699
C -1.0489538038548707 -1.3595150355084553 -0.29578321603101604
C 0.32094236500887974 -1.2227506004761208 -0.5269985839244062
C 1.355949075430879 -0.5783532418943254 -0.28609483503682887
C 1.5422839597601017 0.6053822456526432 0.577121603209964
C 2.7015952627871815 1.2042433754026955 0.7506879766730749
C 3.9416460696435607 0.8103231772919741 0.14128519466222939
C 5.052267107547641 1.508737478068127 0.4034085385016695
C 4.962242295510757 2.669292330631002 1.3177954712234023
C -1.9058181826501701 -2.3630248151530484 -0.8471296992378305
C -1.285063493555828 -3.234434053786141 -1.6703712939982547
C -3.2816018790190027 -2.5270457854617834 -0.6106446994977686
C -3.956590472358383 -1.7587747518237427 0.1579687406789514
C -4.766290533773442 -1.0999382501404193 0.9804948131507939
H -3.233113441673334 2.5936426803183203 -1.352170500012379
H -3.638582407983568 0.8447162798722756 -1.0403910411462636
H -2.2163011930293064 0.376272083263265 2.1378017951997643
H 2.2915691849655992 -0.9530237680620361 -0.8008850553542087
H 0.6932392572127044 0.9934023573569271 1.0858078010381034
H 2.7175780280641857 2.070202362739665 1.414500129078857
H 4.028062742682219 -0.05015670397303843 -0.5426373835936443
H 6.01381058527887 1.2570326794784985 -0.029653244599211696
H 4.631145250654337 2.3766056874099712 2.324386555315498
H 4.1903632120281396 3.366075023001011 0.8786776504557815
H 5.911068692516365 3.2452124793327934 1.3219363538612654
H -1.8556249685308053 -4.023610994230675 -2.130222559546951
H -0.24440316276108376 -3.151046550729587 -1.8702075643516016
H -3.879794318957154 -3.3263771705013223 -1.0695939835609913
H -5.137342400272824 -0.22850727139880536 0.5367714202574243
H -4.867412205394582 -1.5729976275171969 1.9125292728138243
