20

C 4.115045313974033 0.09866127308507819 0.22468406075287298
C 3.038645362047868 -0.6494971971150503 0.3458443278272337
C 1.8727847881457773 -0.4735345928863674 -0.5077458633654164
C 0.8157447799735631 -1.2484175793319712 -0.3486465666890795
C -0.40543682551735477 -1.12754033701267 -1.1794127209200662
C -1.5798015388011661 -0.688647089588807 -0.39269459627912195
C -2.6456847335377787 -1.6084456840749715 0.07762040731041038
C -1.665640548463897 0.593380071897341 -0.10407908252448342
C -1.561218011943352 1.7467227886459171 0.47249040611885285
C -1.607923668239551 2.9643884981895505 0.9342850399732411
H 4.118737885812855 0.8614176196073499 -0.5347694517651252
H 4.967891390577229 -0.046561020922225464 0.8655559807030968
H 1.909431777039042 0.30969185901110646 -1.2684860058193452
H 0.8323232434872243 -2.0063565607100426 0.4178003677107257
H -0.19060974713799553 -0.35691319342563943 -1.9610490558639282
H -2.8271322576458995 -1.3615274940010793 1.165179146073774
H -3.594426364584446 -1.3647765025366008 -0.4510717951696242
H -2.337119917216752 -2.6558792322284064 -0.0336466178250053
H -2.2853490096260343 3.2627290669323066 1.7350731035083333
H -0.9702619183425846 3.75110530646457 0.5430689162430322
