25

C -2.5096989887655305 2.0600495590188572 0.9386428678351291
C -2.2380943866011096 0.7886912634572072 1.1504428672863727
C -1.4252782302744678 0.020986301046000067 0.20089896787404296
C -1.4777315725796465 -1.423760707304614 0.40031457065956005
C -2.6598845445529116 -1.9867290933245176 0.34000544968603547
C -3.872646148503581 -2.458106034726676 0.2551066675068814
C 0.01801866664054979 0.49831096638775674 0.18572520115422184
C 0.7763623475660419 -0.3141327343374632 -0.7874924544020818
C 2.186089443776848 0.000515043405402189 -0.9400398191166057
C 2.937254059025416 0.41033433558786186 0.07351274587665933
C 4.37944553580421 0.7344880897642821 -0.07231017447543003
H -2.13243487827836 2.5586881191379645 0.052178576088299816
H -3.1057496864749994 2.6652794265413293 1.6129223204237781
H -1.8214621387262977 0.23917398891014083 -0.8348330126026984
H -0.6853196274873855 -2.099462330326055 0.5906292196242707
H -4.406919189129892 -2.4838286896916655 1.186215296238948
H -4.183010077741174 -2.7546517852412586 -0.709339116554282
H 0.07584927359590977 1.5797329068325872 -0.06448776641559553
H 0.3773139384530237 0.4145825077715191 1.2360014879888854
H 0.4911935358615757 -1.3510859663383583 -0.8982598201149764
H 2.642356508775399 -0.10357158513546047 -1.9206513915992316
H 2.471735471885478 0.5130470641771028 1.0577332166740996
H 4.8758945231868696 0.5347587897293401 0.918388008049632
H 4.437071927758336 1.8331558902977738 -0.3180182056399926
H 4.849644236783852 0.12353467436160374 -0.8591666757252923
