20

C 4.4009782892037865 -0.60541912441036 0.5225761305053204
C 3.800216729839845 0.357304202612423 -0.14094283678457917
C 2.669511632783993 1.0091978767048086 0.4402448753704523
C 1.7804329165526442 0.20839769059047145 0.9717991827747592
C 0.885024962950978 -0.6434363921221325 1.4073870967944893
C -0.10196418534085039 -1.0879419137330912 0.4282058123381305
C -0.38985943790024213 -0.10712132783871929 -0.6214194428220167
C -1.6083633061182736 -0.0021325691333620653 -1.0597781409232867
C -2.8044652239944314 0.3945898908367529 -1.3735175836395705
C -4.020963231177306 0.8321282416568577 -1.454785308361142
C -5.299920531746172 1.0811411047384627 -1.242556411249393
H 5.258531878850475 -1.1243535127088167 0.12047691758823866
H 4.0320968308756635 -0.8872467582950887 1.4922511055605536
H 2.4277743255515656 2.0321521122262642 0.5128059133278675
H 0.9961563375934128 -0.9018181237322546 2.4227169263504726
H 0.3194481466550029 -2.004795140927112 -0.07653994057915292
H -1.045918693547567 -1.4427505980615891 0.9156770163279375
H 0.38583873842660504 0.5030044751502498 -1.0122701095507567
H -5.6008722750737885 1.9182593585803662 -0.6259375304720755
H -6.0836839043977164 0.4708405078699161 -1.6678096573425238
