24

C 5.213233945997204 -0.8655893595428031 0.994446949170331
C 4.128626502508671 -0.16275040152102033 0.6968885238086857
C 4.055849976091103 0.6593201886870783 -0.4791601281172682
C 3.1277256167868988 0.3237078331078337 -1.351423801920716
C 2.1415061113755542 -0.028173092844443668 -2.120926729988618
C 0.8457495416775587 0.5986164516228049 -1.8205890555775655
C 0.49907029510134643 0.1908661197194346 -0.4112214385415842
C -0.7523451546629094 0.31880128131706365 0.01801089772592723
C -2.026178269910207 0.5835259638271996 0.05864981986548915
C -3.002620251258094 -0.35347760811353895 -0.4470674686845331
C -4.005112259397374 -0.7584062447082559 0.295893831166322
C -4.209939117323903 -0.30598634873566266 1.6601841975312843
C -5.23856555172185 -0.756638022959662 2.34286024881756
H 6.056019347853154 -0.8129320682371216 0.3323245762013114
H 5.284741115402347 -1.480681754967617 1.8625929986205254
H 4.626702720649238 1.4965837281167826 -0.7632948620995609
H 2.3888206204341276 -0.7281368756850959 -2.8745638771765023
H 0.04044489370437922 0.30509663472655324 -2.520398107861716
H 0.9606456484216773 1.698454664852528 -1.8323487954476763
H -2.343555244266375 1.515258137432934 0.47158082634515774
H -2.914977533091617 -0.7344983893762933 -1.455488219722374
H -3.5036443577839353 0.3944205401027148 2.0772803863571223
H -5.9275080378144445 -1.4580627360942628 1.8947430721230136
H -5.444690558770625 -0.4535233864814959 3.3710261574072824
