22

C 3.277374013940605 1.771027094703311 -0.7610528057256469
C 2.728186105330896 0.5759522678202522 -0.5696128410625432
C 2.3452785881971105 0.17385422274212922 0.7970807681939718
C 1.9784051156445648 -1.302076451571481 0.8298514816479746
C 0.846204557563582 -1.5924979285389829 -0.06745043725895522
C -0.40209275763310237 -1.372336912912538 0.2956967404082102
C -1.4701309867670354 -1.667847457866651 -0.6046741123409912
C -2.073712948267675 -0.6230453068921847 -1.1275241151145696
C -2.69843263250135 0.4744091015504738 -1.5217149990663479
C -3.7773219319955573 0.9356462451060107 -0.660047617755735
H 3.461489178201776 2.47334510705316 0.037632705093617796
H 3.54950655039654 2.0429777904692377 -1.7718515852815624
H 3.215809515424365 0.31772151972661167 1.4814963892827762
H 1.5368194855606638 0.8068803084569324 1.197270590236385
H 2.8751095876564015 -1.9202501855115253 0.6230169563814414
H 1.643349298687456 -1.560623680230186 1.8654416272459222
H -0.6029492084983591 -0.972443030895381 1.2662785943844515
H -1.8658485363903565 -2.5912937403172105 -0.9271060753127319
H -2.3135160427895736 0.8623446281291332 -2.4210908719925
H -3.449922011346634 1.5193322278154164 0.21731154242745035
H -4.455874330381297 1.5969584025664947 -1.2600469455571697
H -4.347730609987673 0.051965778751126714 -0.299148415320857
