19

C -2.574470561528292 -1.9775284380643992 0.09552056192307713
C -1.317331585480546 -1.5984414241377 0.25790483235442707
C -0.8760720651937807 -0.24683723701775687 -0.24840901343178623
C -1.8059005180945795 0.5551458073346772 -0.9033662395391514
C -2.0147730280177183 1.6208444197248963 -1.4993765216659327
C 0.3756388428303519 0.027117515172867153 -0.03827041078859534
C 1.054109574780002 1.2566682719134423 -0.41976323147630196
C 2.357887194575208 1.281676027066752 -0.6253083829815522
C 3.056060310360421 0.6617559294569216 0.3256938160994606
C 2.5257542624805835 -0.6201783393577665 0.7740873178033159
C 1.2515169105973485 -0.9773058080943738 0.6246558910161397
H -3.3206463031656517 -1.3416508407914116 -0.3989004537323716
H -2.845415062066633 -2.942416774760748 0.4694135702414911
H -3.039959877848559 1.852396776775622 -1.8896699861516502
H -1.339388831430385 2.4546812357405465 -1.7515839775421682
H 0.48445561023736194 2.149586441544712 -0.5149462415782898
H 3.9546327279924123 1.0594400185985318 0.7511380346570291
H 3.209893991490292 -1.3105799472206106 1.2517445840380754
H 0.8640084074780803 -1.9043736338777641 0.9461202596442634
