19

C 3.5551124272593784 -0.449626702918525 -0.44294108847304176
C 2.481899894882843 0.32022601899469944 -0.5511021167095249
C 1.7315949576812582 0.7516419760593062 0.6376959739693742
C 0.2428811288273992 0.6390389531734767 0.43889880102578765
C -0.6419497639835813 1.6142616642813197 0.4986162751120705
C -1.9995238680885892 1.096380041163157 0.2464629574209085
C -1.763790449361988 -0.35082111746908967 0.02788526534229576
C -2.8495724822548145 -1.3149675681553674 -0.26767992394739454
C -0.47082503286818855 -0.5862754143648125 0.14366936159876803
H 4.058594163422184 -0.7292339889877915 -1.3578484496947028
H 3.969538579399474 -0.821616995957862 0.4833678002574285
H 2.0113136560924296 1.7805942525264922 0.8724064898951281
H 2.0066665028511323 0.12364848215315273 1.525953105917877
H -0.35453849936369036 2.6553024363475815 0.7109711483950073
H -2.5275568925767815 1.5884651132788306 -0.5763292207253792
H -3.2831921683088843 -1.6568590131500531 0.7089676171090673
H -3.6863406433747317 -0.8469848250735345 -0.8147376222911434
H -2.4597185990617367 -2.228450625700729 -0.7521435092840739
H -0.020592911173116367 -1.5847226862002846 0.027580132156880217
