55

C -6.94438172818352 0.03896982441136111 2.76518859717446
C -5.907111944338034 0.5804948565789221 2.1845451378084224
C -5.938972626647497 1.8230395790115101 1.3922468964802661
C -4.665682206563425 1.932699210339468 0.5824276583083742
C -3.4486324819870116 1.9606605407725537 1.4819700278013046
C -2.196175068380605 2.0646683060736706 0.7660763372788224
C -2.0032159957705074 1.1602711506005958 -0.18492786125418384
C -1.9337760102144845 0.22313261653639416 -1.087643973777803
C -2.4686883498563716 0.5758962464075806 -2.388043627415152
C -1.3416841418185042 -1.0020644672410501 -0.6407898249552431
C -0.29130259629071814 -1.5491199041605637 -1.2987075528059697
C 0.22057719102582804 -0.8814826229354059 -2.4526012673891815
C 0.7047299865567048 0.3351975300318543 -2.25162919032314
C 1.249581199338945 1.487379808172257 -1.9200352715800808
C 2.620606517982328 1.4420201451884442 -1.5403476506860663
C 2.926514917160495 2.072286357023391 -0.4193114675472769
C 3.1182043327613473 2.64277777850351 0.7520747916783961
C 2.943150405737037 1.7776790337770005 1.9108382232863828
C 4.2640307138163 1.203243411325393 2.287868799529738
C 5.110131634360265 0.7404803565145424 1.3852855717013044
C 6.404364239067919 0.1795079716669568 1.777239936768466
C 7.261669104467736 -0.2867151259831624 0.896195213912409
C 0.23928379836879696 -2.780857715898101 -0.7778937198622546
C -0.404664719307323 -3.3633783013190226 0.44548480911330546
C 1.2433654025645982 -3.4066898304444337 -1.3153962534327361
C 2.014923589541572 -3.0257279537833957 -2.4981978666409113
H -6.841236367464603 -0.8705725238500854 3.327279554681667
H -7.91070240878857 0.5013855200259345 2.6840289066011165
H -6.786771865611708 1.8060164456545411 0.6845979983089494
H -6.014485389188556 2.66885585186065 2.098755248608163
H -4.544271125052198 1.0779122083075923 -0.10637921364198126
H -4.67720768860643 2.8875240734038248 0.0173495126826658
H -3.4212884475747978 1.0463693910121545 2.1277891183977298
H -1.3822142826425845 2.7241026575441465 0.8412650078509815
H -2.3157917593493518 -0.28167123446162484 -3.083527813939355
H -3.56209516890933 0.8067736877457846 -2.279121128341247
H -1.9244426645696942 1.4352567355619998 -2.8243484263624774
H -1.7671807098065266 -1.472286400460733 0.24277410477847827
H 0.283495723014566 -1.1785446299089886 -3.4576301574095463
H 0.5741946306306753 2.296460822648719 -1.9845300559172998
H 3.4558697117989885 0.9880701748408374 -1.9969826720211339
H 3.3743907114211913 3.662715588003934 0.6837928421231207
H 2.607806102528443 2.4020632075073074 2.763645544802708
H 4.566471536909389 1.1514612173390009 3.338670757618371
H 4.872068327372364 0.7630365230743466 0.34005201354183634
H 6.69799229382586 0.13236488665751375 2.831747764580913
H 7.009015044022038 -0.2572283881457466 -0.1449976805450756
H 8.208181132511456 -0.6963060343324411 1.1911354115581598
H 0.1286811372620121 -4.2669529761085805 0.7601518674923923
H -0.3356629818390178 -2.5658591393838326 1.2206600044148592
H -1.4596209902169925 -3.5669455183645566 0.18399228270254162
H 1.5732419622490077 -4.354597716849782 -0.8312350941012525
H 1.4844890660473626 -3.2051950129914766 -3.4595140298308333
H 2.3844886099897247 -1.9883721778723695 -2.4278545521226365
H 2.94574069664377 -3.6674777787203 -2.5934835896834794
