15

C 2.6296894249102745 0.7233869081332638 0.9527852341868797
C 1.5908152959731883 -0.06038319563205179 0.8613316490458788
C 1.0964574458285523 -0.507728055114861 -0.47452342089289
C 0.7247305181627791 -1.9056617590492506 -0.6874310677797337
C -0.2971362323488976 -0.978203643437253 -0.4532903482084999
C -1.7084559094985103 -0.8447843220236163 -0.3270226963069684
C -2.1813950366406893 0.3368489087430394 -0.054244526029170695
C -2.559919191911832 1.562015968392466 0.2219380800509727
H 3.1462083829025653 1.0596432649124385 0.0700938004503752
H 2.9879305334582065 1.0474870238885887 1.9195707193247036
H 1.3805125927518487 0.12852588014081237 -1.3468593314208646
H 1.01315363663656 -2.916867566959482 -0.8822682249574634
H -2.4469771344928626 -1.5989934018603689 -0.42800497702265033
H -2.7531856487465376 2.167993762897362 -0.626033286999479
H -2.6224286769845118 1.7867202269687312 1.2539583965588317
