22

C 3.3628903980873983 3.511452155481541 -0.8838136041323078
C 2.1507620814952237 3.2740705165272086 -1.2852390963193976
C 1.0620861554176455 2.7687683815889796 -0.45967539469413515
C 1.1684282838836968 2.481708876486465 0.8252032282086579
C -0.03728175821178607 1.9771432739988417 1.516252225541293
C -0.03627624840050946 0.5191687360447121 1.695108224915658
C 0.1796339050998091 -0.5767380850955763 2.516672665445673
C -0.2589184321039983 -0.8118852495855422 1.1444630904612116
C -0.5811675932227578 -1.6699157957785784 0.21814148517396792
C -1.139488328563057 -2.5286634762538513 -0.5847391543369026
C -1.5233839433929124 -3.541939813163078 -1.3083737693459512
C -2.968917368393625 -3.8856266393335726 -1.2613152394441765
H 3.6310943423130047 3.3332549130972624 0.14196504792889755
H 4.108691438066109 3.88501647229316 -1.5599023829605394
H 0.11381236986898748 2.64122380876613 -1.0092573372612066
H 2.1179635386819395 2.6284053850349944 1.2976206813885436
H -0.9785961730680864 2.3837140301684405 1.1510868875700695
H 0.4781435452498918 -0.9036684995756973 3.5093318096551944
H -0.8605381797716064 -4.131231037086433 -1.9260713526735416
H -3.1605757693328185 -4.912579431213606 -1.6316892861867505
H -3.4969812432843104 -3.124933704170134 -1.8828934639614598
H -3.3313810204120555 -3.732790712531336 -0.2228752649689045
