19

C 4.796944080846489 0.9919815414559288 -0.7627493150909173
C 3.54705971602691 0.6506677662106 -1.0212599608557946
C 2.69653176596612 0.1553948701762274 0.024005949912265935
C 1.7218119512506957 -0.7123292711158739 -0.1735090489174155
C 0.5813423056400487 -1.2973467677627069 -0.39286407759527686
C -0.5392157450677603 -1.8512983544453732 -0.7367186651321465
C -1.7917885942563228 -1.1322823896886187 -0.6056119621386291
C -2.0366941302659507 -0.30466252001427574 0.39506129520546124
C -3.3029346705799756 0.40230012168821044 0.4993461575911978
C -3.527309868349453 1.2190554675093865 1.499165006020814
H 5.256198843492845 0.9286238148108987 0.20867973584291288
H 5.407939217995307 1.360674152006606 -1.5735413960963278
H 2.8484953294679802 0.5013551786907037 1.0343127401776209
H -0.542145766811476 -2.8535685499093772 -1.1231208692225214
H -2.5438423325820483 -1.291413286437649 -1.3653968591630217
H -1.2585297030793547 -0.17423494428449346 1.1326561978899905
H -4.068980032118609 0.26663908340995635 -0.23706443097971616
H -4.458619262493911 1.7666904161921295 1.6151426600863037
H -2.7862631050820164 1.3737536715078373 2.2448516276982935
