17

C -1.6107623433489011 2.0664147136115973 0.2277020386388628
C -1.4064631730448314 0.8038850075069894 0.6314988411439766
C -1.0358252979716267 -0.18602534019159891 -0.4108304931338522
C -1.3210108374737783 -1.5651831131617933 0.13228180857225527
C 0.38322327555169555 0.024936562853016375 -0.7509434482262192
C 1.3570139640836634 -0.42302544019974353 0.016950195989049077
C 2.7962702666836097 -0.23566922972474613 -0.28306358394359926
H -1.8820586694405217 2.7997430957689495 0.9787252579478019
H -1.5205015285806671 2.383003745844217 -0.7872799583546183
H -1.6985521251661897 -0.019663187819645638 -1.2815792488166011
H -1.2086435973357954 -2.35304555264372 -0.645778418182893
H -0.7220783471102441 -1.8000077203431042 1.0280948133731083
H -2.3934570505652015 -1.5593129479943117 0.4519071283546789
H 0.63482186501811 0.5578630814513078 -1.6483377932873735
H 3.378381209290649 0.11802129968283985 0.6039006909954556
H 2.956853019350771 0.5618954005495881 -1.0603007717817274
H 3.2927893700592175 -1.1738303751898156 -0.6252122465874398
