27

C 0.36804595959921976 -2.5231882921346847 -1.6566217862219075
C -0.07615568037445695 -2.431370176746415 -0.4352471934381307
C -0.23683748086822973 -1.0995323006477153 0.2725858773291334
C 1.0143041358034213 -0.35200464145211957 0.21845840716150547
C 2.229572867610176 -0.975509652900257 0.5408829180309397
C 3.4160894428004775 -0.315862829635137 0.5107919661847493
C 3.4563228602721074 1.02054518782543 0.15247593814389931
C 2.288522342293479 1.6455596855255414 -0.1645359452372826
C 1.0703071720787267 0.9627175188000842 -0.13227325859805256
C -0.17116218183084217 1.621895705746954 -0.4763523145490862
C -1.327851757102585 1.0011826625112057 -0.46168624519596246
C -1.4534510762646629 -0.40715800390988455 -0.09687462754979186
C -2.5303962745510487 -0.5700107527318052 0.9732222733217855
C -3.6003205114570322 0.19685214705449927 0.8311747463981485
C -4.481308808263709 1.1061079673482592 0.5353306660440379
H 0.46655368721994894 -3.4850465930560204 -2.1203524806199874
H 0.6368336486700362 -1.6403407391341371 -2.203459164145996
H -0.3620748170777883 -1.4266138423561414 1.3751163966170796
H 2.1588626185534574 -2.0128704560705986 0.8140724887231392
H 4.325989873625635 -0.8632744263091845 0.7741154110523654
H 4.4280211774954745 1.4955940870479183 0.1456688941100865
H 2.292490745770407 2.6827405561189748 -0.446066886605777
H -0.12512301705772955 2.6806460426006367 -0.7576500976347552
H -2.2171554236012545 1.6068028195145596 -0.7436611702561431
H -1.9011838975652142 -0.8949097080075267 -1.0501492874058582
H -5.237461604090512 0.9331793203972513 -0.20015351415518076
H -4.4314340016875216 2.043868714600457 1.047131955979057
