23

C 4.408348996186883 1.209720536083718 -0.5179940903764291
C 4.380080489249609 -0.07397081334210208 -0.8102396364689194
C 4.0286831156375715 -1.0448822913137985 0.1806483812953479
C 2.795651235728691 -0.9635560432652874 0.6278210122117311
C 1.5136312724957734 -0.8976991659066427 0.9520886466906279
C 0.6093213231143579 -1.6678670339321122 0.12137760204199412
C -0.007860767216137638 -0.9476438990358789 -0.9799253010997014
C -0.9317974394541912 -0.0755012603198284 -0.6636170328777896
C -1.918112007686911 0.7021496230046438 -0.24571934854432717
C -3.2229116168358805 0.0687799395031471 -0.15061596521176476
C -4.354657004195914 1.0440901282164652 0.028743330768456483
H 4.161703356703042 1.54766924877996 0.4920289648029654
H 4.674427514493218 1.9445388277744688 -1.2683774752713233
H 4.596106355774134 -1.821003321857211 0.614526243101697
H 1.3427649711460452 -0.27790365058852884 1.7862100808902674
H -0.1463375453534697 -2.167272042246852 0.7714144575425094
H 0.1694491655378828 -1.013632224296116 -2.028078313425754
H -1.6036530325009337 1.6856738801881335 -0.038553546296416843
H -3.214582377526054 -0.6623832748386872 0.6896623046927678
H -3.4168934403459836 -0.4596790780283172 -1.12571327424652
H -3.9700036564113637 1.9018875939157565 0.616759555167828
H -5.209462469108438 0.5435318021631084 0.5217017766515437
H -4.683896439431727 1.4249525193419024 -0.9598779963565756
