24

C -0.2591507139819772 2.9635997050995164 1.334419251373608
C -1.1447381478728023 2.1748753656347226 0.7892568374127447
C -0.8042813755838619 0.9687724862414674 0.07290550332935623
C 0.4359061925856168 0.5872951209280046 -0.0753063448849633
C 0.928731293763768 -0.6100452883656258 -0.7749394198803675
C 1.702899138195644 -1.508206800140254 0.11137854837696545
C 2.9824473538500924 -1.2782614677625237 0.19587494153469062
C 4.2608720557829844 -0.9736661735105726 0.2043569693291108
C -1.9530851726139398 0.20675319167586162 -0.4811955875356457
C -2.8721649915053664 -0.23064607289209035 0.629491859342312
C -3.0997638628482913 -1.50709689656224 0.8220380789476072
H -0.6168934201521122 3.8633826197616337 1.8616529288347017
H 0.8072469715079389 2.8593458091278565 1.3442804013967131
H 1.2267164722249837 1.2287747792737977 0.3722336276675935
H 0.11139840732520856 -1.2117847508823367 -1.1833086116184528
H 1.5403748057765358 -0.2989317988032623 -1.6703328891323812
H 1.3577696119054097 -2.316965803622715 0.6898415987529238
H 4.542605427060407 -0.27577869320365933 0.943499705272129
H 4.842433252722649 -1.472938027204298 -0.538768347054719
H -2.5681656284254197 0.9973001416299884 -1.0224278246020766
H -1.7211309595352398 -0.5891549937827146 -1.167641774921395
H -3.3088289335663714 0.5452559758068681 1.2266650998791704
H -3.754129292547297 -1.882986988636131 1.6082666862621335
H -2.637068484068226 -2.238891439811336 0.19563903609467584
