29

C 4.549487779586124 2.844622902353365 0.34996567949824947
C 3.5063852075152786 2.060240133581553 0.23238630183675554
C 3.5034114462357806 0.7722059430455028 0.8527779621369767
C 2.3235410452572083 0.32143326869123834 1.2152380457697636
C 1.0910290950395571 -0.10684373840378886 1.4413933959146634
C 0.45008817776754123 -0.8111369363529423 0.35643560559340326
C 1.1597842790776272 -1.9524403603293838 -0.1908053492013837
C 1.5620115204537643 -2.928332808590115 0.6117863951377953
C -0.2700646729146678 0.037374976188787386 -0.6374208831373944
C -1.3600592972280008 0.8026042294752834 0.11271633217819681
C -2.316947068857378 -0.10159488160633125 0.7596665899235976
C -3.496245757705907 -0.31751647340026035 0.17733245707084716
C -3.8271365223785017 0.32937557714253685 -1.0724608545310086
C -4.977397658927736 0.1198328209557889 -1.6421161773931554
H 5.408941860806982 2.5374612975334325 0.907122511426726
H 4.54342592454149 3.808108303108147 -0.11806240572813906
H 4.295490238451481 0.11064250183612527 1.07201060312232
H 0.7549134371737567 0.14078800825208382 2.4098625362305137
H 1.3815283355589565 -2.0481814152270625 -1.2439792568909747
H 2.1000246509200218 -3.8072713416950275 0.2433162072336368
H 1.3815874426544088 -2.9156639206835804 1.6892810663945956
H 0.3503387509075589 0.7286735984491662 -1.2051838597808815
H -0.7905710299578331 -0.6312533654878509 -1.3523444898378556
H -0.9057970419280938 1.5446234919318647 0.7926499896907873
H -2.079203398451949 -0.5823164374851818 1.6821025932363802
H -4.232261116423463 -0.981752012150725 0.6269917468786355
H -3.1180133033193047 0.9867095029806865 -1.5322253557849654
H -5.284856957036504 0.577850376834902 -2.583707769153042
H -5.703435366818584 -0.5382432409483144 -1.1942461929489379
