15

C -3.2623916447946857 0.7699942143932548 -0.133572715968614
C -2.671818044038869 -0.39768314297100515 -0.3882183856513618
C -1.8148280165341482 -1.088549177067226 0.6221683822489933
C -0.5323540075062976 -0.3828547232584593 0.6357771304208248
C 0.5492565767686183 0.20208075199110992 0.6634305403953799
C 1.7901038835590624 0.8676037071672599 0.7190516181074085
C 2.760710975806778 0.3023732886454275 0.07535897172536299
C 3.8261309384982614 -0.3292155238665375 -0.30687101951993934
H -3.862121998307912 1.1881886711819858 -0.9304015495348391
H -3.1724881218902623 1.2982300949891066 0.7982854455519038
H -2.287291512676505 -0.9166904418390187 1.6113985820652632
H -1.7084622042153847 -2.148706774062522 0.3722675777222237
H 1.8801784990579524 1.766051076129372 1.2624367686921316
H 4.115282774148254 -0.14758048287908898 -1.300148215497666
H 4.390091902127914 -0.9832415385509371 0.2949786451112161
