35

C 5.2865539333674585 1.6922410528937335 -1.0143680955326944
C 4.5536212998803265 0.6564568517213005 -1.1676879026933147
C 3.1618937819898196 0.39595421890802524 -1.0847720314684715
C 2.1747870696888927 1.2218567330084298 -0.8045822563400977
C 2.3581386138875065 2.657471236700727 -0.5095904059740772
C 0.7916407828023524 0.6830225594396081 -0.7725770111716072
C 0.0917717239365491 1.0091303973258703 0.5270242286778889
C 0.7573052092910474 -0.7793838191836028 -1.0557020608005483
C -0.671604857885412 -1.2253618773779236 -1.0665928246426848
C -1.5157822544562611 -0.8588505606194474 -2.2125610484299765
C -1.1733142270973755 -1.9310038479643439 -0.07726888616727702
C -1.7079968366911684 -2.41720756667874 1.003984557570054
C -2.216266903751153 -2.5091323710913827 2.218587686378836
C -3.6549340597241953 -2.2260268947572017 2.4591806244867085
C -3.8258058658539427 -0.7330030874404873 2.5363384062905423
H 6.365938896351737 1.585024326163839 -1.1464795137160069
H 4.922924669186566 2.653216822764886 -0.7669997059380372
H 2.882737977415999 -0.6653208379058537 -1.2969947568141746
H 1.3352188338217164 3.111482266859254 -0.32813778815481004
H 2.906514663266497 2.8645294352293753 0.4196453409136188
H 2.726160097270683 3.1870820406459472 -1.4080956794236104
H 0.23481759579996098 1.205647624465658 -1.577228487664499
H -0.8398852373863565 1.5859083533764853 0.3661982198403124
H -0.18137161600551144 0.05593333007499458 1.010672516025758
H 0.7510363003721597 1.630733594257628 1.1672814599813028
H 1.3280399505290208 -1.3771092330229426 -0.3011194558063253
H -2.3100938725169264 -1.6411017107036279 -2.318929003679973
H -2.0622117247475256 0.08935247771742418 -1.9895113215199673
H -0.9346155097797604 -0.7805264332678182 -3.1520800748875164
H -1.5819984149593442 -2.7892997358708054 3.0268019094128946
H -4.26086033338751 -2.5758353022254705 1.578874146535894
H -4.0147646604613 -2.7480982466829085 3.3616792227485663
H -3.989837362765149 -0.3984470726432851 3.5824557076678842
H -2.963197081936195 -0.22732519443113963 2.0550294639375823
H -4.724560579445475 -0.4020095296942145 1.9608173529347706
