12

C 2.5698710661014585 0.18169732633530014 -0.05583680683887443
C 1.5558048078748974 -0.4326187294869587 -0.6246086414393133
C 0.37021524255150023 -0.7760044550931082 0.1631580529335875
C -0.02767947234404494 0.25604364507411076 1.1647025584662902
C -0.8848033113535786 -0.05858821462022866 0.06961215996272835
C -2.201762545282324 0.3991873389744071 -0.40669551265525333
H 2.5381504552060488 0.4357598463353731 0.9854960484238219
H 3.431893376136676 0.4265476967260049 -0.6473532970676527
H 0.3183823322207556 -1.8392827736541721 0.47545358940990634
H -3.0490966093756033 -0.1473581016174561 0.08691032646072439
H -2.3577228203036507 1.485209507021381 -0.3311665844780165
H -2.263252521432107 0.0694069140053381 -1.4862305873157393
