17

C 2.7881569268836914 0.6815072336120751 -1.068249426727552
C 1.8657045113395943 -0.2536344627590241 -0.9237596991330377
C 0.5307100150082638 0.17389823626686732 -0.4179917620138192
C -0.23231545494135594 -0.9658232002984841 0.1446651361709554
C 0.34027179181539263 -2.1713758791534605 0.129793912278735
C -1.547489753342435 -0.740211276007778 0.6815334471009087
C -2.0269970974060674 0.4598469221982867 0.6563294941879058
C -2.440734290400171 1.713123766781166 0.5921778621021616
H 3.7698600662354735 0.4033420681363514 -1.4341412988518565
H 2.6348649280980165 1.7349091749649679 -0.8428756325091492
H -0.048631850831286697 0.5584769194320184 -1.299735109950682
H 0.5878301328442628 0.9462384664840617 0.36062553230119054
H 1.329068486304186 -2.320773419918511 -0.27786828317953993
H -0.18749394002481337 -3.021473727133079 0.5311694013038598
H -2.212091358191432 -1.4625598054922209 1.1181133546356494
H -2.959244496710176 1.9623623524537273 -0.29326735538422094
H -2.191468616681179 2.302146630433018 1.4430834585918766
