30

C -3.2062570033083033 2.892595366082013 1.0144532094037149
C -2.139966488533737 2.1020784660303056 1.0410851266599714
C -2.0790783093898764 0.9204193615732748 0.15536490865704963
C -2.2104365654284464 -0.3635673357561435 0.8898292644221606
C -1.4044927018574513 -1.2950051272959442 0.38511976388202995
C -1.329725923797553 -2.6851307474478423 0.9304345937473313
C -0.6341016332423256 -0.7274092727271415 -0.758923366524279
C 0.8372772575132128 -1.061999383075043 -0.660032594137984
C 1.5823914582646443 -0.4819837658933806 -1.81654446013219
C 3.0009445803482326 -0.10771605307884843 -1.5097223252822085
C 3.144552738949549 0.9279729822591466 -0.48675063131211654
C 3.802054265758139 0.7078417067023035 0.6345087293052317
C -0.7803255837756632 0.7663322865379399 -0.5650872590696308
H -4.0620520841652485 2.724131524837315 0.3662646527583582
H -3.2246197747822567 3.7527639918483495 1.6748963903752052
H -2.883780080153092 0.990946125836214 -0.6164834450054488
H -2.8865694332737806 -0.49887187229742336 1.729681673907254
H -0.44996753335274603 -3.218940906559361 0.5134321278265618
H -1.3165463573650023 -2.6754606893551025 2.047344919721595
H -2.2231569378123512 -3.2901885634899544 0.6523977081534699
H -1.0289985656606382 -1.0930242223684707 -1.7060888123309679
H 1.0047173754716388 -2.1682756078143184 -0.6784439681797396
H 1.2906975439577664 -0.6964785230746872 0.2750707932239136
H 3.4878397078127144 0.15382861135792447 -2.482424542306284
H 3.536668908245242 -1.0388620211383552 -1.1730397289830965
H 2.7071740094230847 1.8969715995836147 -0.6420871326659809
H 3.9201984768925033 1.4619424946275346 1.4057745670107076
H 4.257354665381155 -0.2531802373576267 0.8304287555518378
H -0.7501361027567557 1.2342926173283468 -1.5564186101375006
H 0.03834009063726678 1.1239771941252863 0.10595969146101361
