15

C 2.363405204063771 0.18849141229446717 -0.45586297419499505
C 2.091486902316665 -0.9458787326758162 0.17580496871020415
C 0.7129178952376355 -1.4478186965054585 0.18694438358770346
C -0.19649843174556839 -1.0763217534619511 -0.929197111115022
C -0.30733690446245804 -0.3210606561772685 0.3635123213681782
C -0.8113523806156643 0.5982720861937677 1.1804685696214143
C -1.909917502257846 1.44803458743024 0.6393241825649318
H 1.592299220477371 0.7553664815857623 -0.9649597989367849
H 3.4064884419965433 0.5182290801360212 -0.43386520489313485
H 0.47326676295340925 -2.3770044810953097 0.742907067267597
H 0.2588223421270364 -0.5672291468308034 -1.8020505458719323
H -1.094363684008545 -1.6902159431204318 -1.135074279071254
H -2.29069515511411 2.054076479348728 1.4982119086876224
H -2.7616039665770153 0.8115115154343849 0.26679080747698786
H -1.5269187443821726 2.0515477674333757 -0.18374871196826278
