31

C -6.339414323125974 1.808365263538021 0.1551876220336406
C -6.6207877132841055 0.72314199537259 0.8438281667635599
C -6.0660581289809565 -0.5334782813004953 0.46715301712388896
C -4.784692717711108 -0.5295507157905844 0.18699268769950458
C -3.525486968386924 -0.42123651690067515 -0.07019013061802999
C -2.999738885705978 -0.12338115649819827 -1.3609635367285895
C -1.6636460000016855 -0.10175799143827279 -1.1830878998719516
C -1.3520833029026693 -0.387414041493864 0.2255153867617596
C 0.014971317141285268 -0.44549263941419537 0.7847028023970889
C 1.0111778747969853 -0.616390526300077 -0.2701389151161152
C 2.13607595855625 -1.1848755237287465 0.09661936983257523
C 3.2639392511234004 -1.6768172917047928 0.5728572224130438
C 4.197928002375618 -0.7161229209260567 1.0671664234761693
C 4.9879247258499335 -0.003104768325288361 0.2553537211102894
C 5.9308843667144275 0.965536364616161 0.7386368857980318
C 6.678654969085646 1.6333927301393079 -0.11701852133161571
C -2.4998071764024408 -0.5828116233547231 0.9042893736602248
H -5.687896873695851 1.7509457681763227 -0.6969340144855954
H -6.76513055919148 2.743688529132176 0.45263282147929246
H -6.498944885790215 -1.4898423265745468 0.3679678071639759
H -3.4880187683273163 0.05552980675933261 -2.3045306760525084
H -0.9317769825821239 0.09499897064573762 -1.9552856603492939
H 0.052700623442396385 -1.2983783858192803 1.4913429284384787
H 0.9779261611222034 -0.3548512043458117 -1.2901375979237941
H 3.3148203349691547 -2.728989781706797 0.5205315472502202
H 4.254852289941004 -0.5721937535673136 2.151921753752686
H 4.892627611563039 -0.18285057714761233 -0.8045516064746877
H 6.023839154124054 1.142851646668975 1.7973225312162449
H 7.398093521190794 2.3733964812920214 0.26368569808581194
H 6.595431171089002 1.4649725825890176 -1.1841070307508452
H -2.5083640469953457 -0.8072801125920347 1.9581827350553742
