22

C -4.375457376833803 -0.5737387270957096 0.48955041182111536
C -3.213942169142595 -0.30843556444698916 1.0612663535408844
C -2.0953071270652166 -1.1799761960546762 0.8610920001067683
C -1.2211726574622033 -0.7785794621560181 -0.0323266309997931
C -0.3441541876235331 -0.26377431051806544 -0.8700817141788321
C 0.6624511761851559 0.6077710974202102 -0.27623475596198416
C 0.9243311137216248 1.7395583098484444 -1.215944938966293
C 0.7185494699448051 2.9948137732317743 -0.9216584083093569
C 1.9800634756512072 -0.13971525703200818 -0.1384370775075324
C 1.8618050377248436 -1.330182359981727 0.7121733801728831
C 2.8869455931457955 -1.6943608671125674 1.4483429529010452
H -4.4949467534258 -1.4475712920274408 -0.133184396216431
H -5.246659538069824 0.06719028416008706 0.6202394794132146
H -1.8521040951238552 -2.0989620950360544 1.316223992835524
H -0.49581883469554855 -0.5579964650059914 -1.871239981831917
H 1.306927203243312 1.4675016761056057 -2.190061930624368
H 0.3362816470001898 3.3474218185478173 0.03489245141932026
H 0.9358016267745516 3.7550435103861286 -1.664185867467467
H 2.3644914761003606 -0.41037327706545884 -1.1570841285712192
H 2.7031101249901512 0.5708099227251469 0.3464121794777099
H 3.8423484529296332 -1.1827351970067685 1.4884464303576677
H 2.816456342030829 -2.5837093218857934 2.0918001985890955
