31

C 5.302185798924526 -0.08711737850717088 -0.7384619289898441
C 4.461616548913334 0.8844838706660881 -0.9725128053480718
C 3.170617167691634 0.9847825916696986 -0.32702713561815305
C 2.683068207078662 0.14377505369612822 0.5512903077240879
C 1.3223996570671686 0.3539150321662606 1.1562192840461543
C 0.44424812761878324 -0.7683641664203428 0.8621158950987164
C -0.6881484538833258 -0.7211093640610766 0.21095889367400267
C -1.2628735364723527 0.49126362127948103 -0.3357005825802044
C -2.423703566620519 0.4562924677797176 -0.9881197471158993
C -2.96737424129983 1.667117330780695 -1.5168840594412818
C -3.4242713844447574 2.532898930547763 -0.647166900558566
C -3.863132148571261 3.3398656997386915 0.29137481310247787
C -1.4950360214697904 -1.9740340900156153 -0.018982122145331362
C -0.8085731311333565 -3.1749593159329934 0.5889647718775672
H 5.0239376470020805 -0.8546763878050201 -0.02957982846898556
H 6.273044580688154 -0.1693510452834953 -1.2189530888039062
H 2.5601774924297795 1.8511206782542557 -0.6130543016145037
H 3.222554740482488 -0.7245916340282975 0.8782559082429656
H 1.452016352885334 0.504808133399781 2.2742598104074934
H 0.9506680689127672 1.3113308964747055 0.7572058114557785
H 0.7715297726374317 -1.7584535027966244 1.2279451586720307
H -0.7355584088902676 1.4185437342076352 -0.20496837586296143
H -2.9092072356172425 -0.4948532401317655 -1.090644384338289
H -3.060420517423422 1.980205492291482 -2.523796642456766
H -3.135739916179055 4.027776390002468 0.6583165559334351
H -4.875889009714944 3.2050072685394837 0.562927732577148
H -1.4819218401967473 -2.1229578473293835 -1.1230214411547905
H -2.5005641168116757 -1.8542183769800207 0.39000266029660996
H 0.15206849347824544 -3.3194334792034845 0.07123016270136444
H -1.4425777768674561 -4.050723538644999 0.3662015735746171
H -0.7151413502145916 -3.0783438243539267 1.6820459678361537
