30

C 0.7575433316973282 4.267264001180912 0.47550695573168694
C 0.1108761621449181 3.137119317797469 0.3025367425482355
C 0.8354318176440594 1.8471040736606315 0.36283140511342027
C 0.1057816759519191 0.7719883727578134 -0.35176600592214974
C 0.7002433489304789 -0.5566745726779732 -0.37672718366895874
C 1.8512700662460357 -0.8206180199130589 0.2107617733146672
C 2.4453715254619226 -2.124213479444433 0.19249797445770445
C 3.7607569789319 -2.170339545799714 0.12235814298273798
C 5.058557071906497 -2.115090224854213 0.09113835453106321
C -1.0488145105373738 1.029381755645611 -0.9431073836988693
C -1.8074114307544156 -0.027302830726892418 -1.6692315803361326
C -3.0290420024759004 -0.4459134668593882 -0.9701337541847475
C -2.9736964752757764 -1.1486345362827504 0.17028523293559122
C -4.195589186440078 -1.5809541053839296 0.8916468302027275
H 1.8243983631867329 4.275388170038189 0.6639144814910766
H 0.2193981696365247 5.1886355800997865 0.4288040399371737
H 1.0066187259332744 1.5666018885364708 1.4401674895714018
H 1.826484222841488 1.941801678698674 -0.12149914877094388
H 0.17975021597705673 -1.3438931013346869 -0.8920648169004435
H 2.3402643519980586 -0.0016098471264716545 0.7167971268949077
H 1.9907624821705416 -3.0785374883796806 0.22686500089636735
H 5.4760714452251635 -2.1036102168278825 -0.893469574657663
H 5.5535622867428875 -2.086699981319673 1.038170741419211
H -1.4575850544489237 2.028997259794385 -0.9022607168513638
H -2.0234030354250754 0.2649503943179445 -2.7098018783118762
H -4.01348436854248 -0.2039087904724933 -1.3476927104133898
H -2.012085599457752 -1.4144038463696187 0.5867848753360061
H -5.118573290639976 -1.2862947423896198 0.3843791003356733
H -4.204790455655484 -1.121673623153627 1.901051666049949
H -4.158666832974336 -2.688860073211939 0.9712568199666463
