35

C 6.108027945385331 0.8600342464741889 -0.5668076528128776
C 4.966074219158988 0.22202437653288798 -0.5763206061210984
C 3.854221701320724 0.6481092082134304 0.2407935184725055
C 2.711104134467311 -0.019028275687582835 0.2111181723732004
C 2.606627012760667 -1.1933980023807864 -0.6688012213704669
C 1.6511003424017823 0.45356244898518716 1.0489450662543152
C 0.45176941501134893 0.1458277184225056 0.6507015856539085
C -0.6627663515846849 -0.17837283603568496 0.16215344744095106
C -1.424256453813287 0.5990923631734613 -0.6760031571659393
C -1.495687049447071 1.6765934975614498 -1.56873707767395
C -2.6896867041074533 2.338480704158216 -1.5293632183739803
C -3.863032453246299 2.074921011242185 -0.6881166115392053
C -4.627012257909611 0.9454541345586353 -0.4738262583646625
C -4.687579043984447 -0.32007532114448 -0.14722494444168005
C -3.5069744589491028 -1.021381949556954 0.16313735192582982
C -2.638239771909468 -1.8762245032163978 0.46740507555459687
C -1.174039752763424 -1.492011536470628 0.5215607975545435
C -0.4782233270485062 -2.4569485892797536 0.9118303365379579
C 0.41212200356582784 -3.3327771212683626 1.3247952181888225
H 6.246287620756782 1.7194443455503874 0.052073205897549116
H 6.934108835727784 0.5342436466948937 -1.1808160964162369
H 3.988124463922497 1.5292800724346665 0.8769860634459631
H 3.0312070180941 -0.8898416969817784 -1.6709489901032397
H 3.2656719980164786 -2.031579669834375 -0.3287737677517777
H 1.579074628588364 -1.5165184161620582 -0.881975162237625
H 1.6577741815488019 1.009781600281129 1.937887495595743
H -2.0684344855151746 -0.1418673465591718 -1.2426619656344373
H -2.0485968230421747 1.1482297153114305 0.1947859339930268
H -2.6996382222457753 3.1834185672783692 -2.2668918447721054
H -4.618750911689808 2.9720511028936487 -0.8998942509368797
H -3.5250163683084574 2.469250748761098 0.3635665909689834
H -5.620155325480674 -0.8474742010687168 -0.08884160844147723
H -2.9802039084202696 -0.037898938406863564 0.8309510765602925
H 0.6434215727801983 -3.1904175923912588 2.3339885851346995
H 0.7015765765103535 -3.98398351182486 0.5615388025997474
