17

C 3.603923044358382 -0.41759944143580535 1.6291084757568992
C 2.2747964080066683 -0.5682317816763225 1.521344396313814
C 1.4989084891840925 0.06110641499510781 0.4220827088306678
C 1.238313669353297 -0.8564163318073869 -0.6861534228565117
C 0.16127282511498225 -0.6906039018234054 -1.4004918359849017
C -0.991663084306807 -0.30541161978027853 -1.9065180161469077
C -2.2023435829253115 -0.7963095949147472 -1.350588414359692
C -2.75153887083905 -0.09786570696077623 -0.3985313143510607
C -3.242008188534201 0.6687172076275831 0.5614025726196724
H 4.117406191333403 -0.8996658621596788 2.4513338723988713
H 4.104520191882951 0.1840837310833743 0.8822896935332705
H 2.113974713341118 0.9122523169876073 0.009823885730996133
H 0.6040458009462508 0.5264493983495299 0.8628312536784554
H -0.9917567133497495 0.3768025141316698 -2.7292770183632378
H -2.7327373994011235 -1.6844044604599953 -1.6184116980246714
H -3.9051934474254266 1.4176306283883313 0.220010118312542
H -2.899920046739484 0.4223888085665532 1.5297447429119797
