30

C -3.5848973940963047 1.5955253745472864 2.0251199491638743
C -3.1281119069980354 0.3697999429009594 1.8091451248265824
C -3.7856398580866273 -0.5028038653647667 0.8600491647555256
C -3.1692989562089804 -0.9560042270747796 -0.19409971866194595
C -2.517980055898892 -1.710908540958092 -1.0645373735321109
C -1.6527590516014128 -2.7785572287610494 -0.5400917988472448
C -0.8825681315035272 -3.5230448967119696 -1.6289069766252267
C -0.14990981905257314 -2.5730566924931897 -0.7631591133224132
C 0.2685364176209648 -1.25234676312567 -1.279140334975744
C 1.09002003815075 -0.4818797532613871 -0.5967205855706569
C 1.4915815556692331 0.8147421606184995 -1.1190427130974405
C 2.32014142665363 1.6165391179298183 -0.4537500577793365
C 2.8087379090365894 2.9307217430841193 -0.8441583894528949
C 3.605828457423822 3.386816752332218 0.08903116339704267
C 3.6897171027496554 2.402742172896471 1.1473200839902176
C 2.942738034148595 1.3543308278884618 0.8504644267704099
H -4.45763858773567 1.9398767431621544 1.483321479353428
H -3.115530238504588 2.2712788806508346 2.7278677778382234
H -4.802166262658386 -0.7958801794187838 1.0155622904023847
H -1.896448548103186 -3.3226619311410217 0.3776123794112443
H -1.033732599644025 -3.245027611022188 -2.6786407112422386
H -0.7958251329694356 -4.6123899157408905 -1.4471133603250446
H 0.5435722440579844 -3.057173373534801 -0.02168060405182999
H -0.09458898986021566 -0.895947087031367 -2.229261552896973
H 1.4623264733819066 -0.8202327123262206 0.35219635197599697
H 1.1260930447425745 1.1646754222631042 -2.0671243101954095
H 2.530494765405288 3.411450374753428 -1.7652186989548178
H 4.135508410856888 4.3364715376641865 0.10769127507350998
H 4.267016574765232 2.4788794173060364 2.059652288194189
H 2.784783078259388 0.45406430996847325 1.4189200323423834
