31

C 1.7201808772447704 4.811750800518246 -0.5343178267213541
C 1.3207946187313346 3.606573582977353 -0.8684486894573827
C -0.03520513251884372 3.175036715802876 -0.714605630152266
C -0.20264799315086487 2.0626808859960817 -0.03965681634406904
C -0.2756804794600726 0.8790136889156351 0.5507279357637594
C -0.18497775821054485 -0.2729333427211672 -0.3196507327103693
C 1.1381168981133762 -0.9124351480081958 -0.3759965778426248
C 1.9113115196583648 -1.0033488885621058 0.6899130731858497
C 3.2242137370389177 -1.6514514219497733 0.5814423386223891
C 4.021829734535684 -1.7660215469811216 1.600268859925867
C -1.300910473245282 -1.2351617400681014 -0.19747004860230163
C -2.062201799623707 -1.1904519333823662 0.849204968652179
C -2.8803298492954394 -1.1287202215870236 1.8566317911516743
C -3.729301681398546 -0.8516576623428455 2.8089239883235506
C -1.532566557647831 -2.196976376478579 -1.2191249863637996
C -1.9500029644646448 -1.7633962907470444 -2.3755115831813183
C -2.3667249926885257 -1.230612515496008 -3.4966778965154237
H 1.0063637440114948 5.501097696748269 -0.130756922849474
H 2.739404189852676 5.115159827906505 -0.6573292275719947
H -0.9345992857607599 3.606327702636145 -1.0586301429003713
H -0.39085558460161923 0.9589972976482011 1.593239553393874
H 1.4513834039351294 -1.3095341511417875 -1.3439954489651518
H 1.5612395869412874 -0.5983173334783165 1.6210943290656084
H 3.544878917674565 -2.051757403694264 -0.38538612395431676
H 4.9784955319126425 -2.246594410361352 1.4889033966165373
H 3.7713268770183292 -1.394855708553867 2.5827448351404194
H -3.742512599208233 -1.5537263819201732 3.641695759341231
H -4.374006331635225 0.0006179214831607408 2.7888348127340197
H -1.4108983360548633 -3.262034044321475 -1.1786894547785511
H -3.417570579838074 -1.1414404812254446 -3.5851599985654
H -1.598547237865604 -0.955829117611364 -4.1722175344409305
