17

C -1.5503034198383479 2.1916653187212263 -0.256622258329847
C -1.5797865445973651 1.3521261732200227 0.7515097643387835
C -0.9158833433256177 0.019534027713105626 0.7612506997405878
C 0.4487265630754925 0.01276507557728655 0.24419072447009338
C 1.657741462081384 0.41313813491800905 0.3868860841585417
C 2.895488600773214 0.7959436508282312 0.41151295672001975
C -0.5974188724906743 -0.7163920407110528 -0.44506716294806686
C -0.5096865983985727 -2.2363578274567497 -0.33959468742624177
H -2.060389210585414 3.1252449136282494 -0.16280754829647057
H -1.0235117423504427 1.9369504431960625 -1.1496574602466274
H -1.1283332456528308 -0.5492559657696798 1.6910202208975806
H 3.6005023648722414 0.08910778568838289 0.7856212504026978
H 3.102306924261198 1.7891960887879979 0.05399898404978313
H -0.8338065736158591 -0.37788808260928675 -1.4701292432123079
H -0.7420588153256095 -2.5450422279838776 0.7119731876285073
H 0.5102857852678354 -2.586081032069232 -0.5411241678183548
H -1.273873334150804 -2.714654435678669 -1.0092324008628932
