31

C 4.081779864279993 3.338613411977899 -1.2355444320059765
C 5.04799059181257 2.808634970367673 -0.49414692767504365
C 4.830892377546824 1.606306323900358 0.33727242190391543
C 3.733340523790612 0.745226407581604 -0.16920497276699722
C 2.660792588959062 0.46757847244108286 0.55297861693772
C 1.5868794441891216 -0.3707452253942899 0.06652099611928
C 0.5299825754151409 -0.6232745889656713 0.8236449256385951
C -0.5686958785476822 -1.4573156130404616 0.3769407546024935
C -0.5786941813762742 -2.089682422588286 -0.9757146466910823
C -1.5898443832003897 -1.6741956663276827 1.1669318706533747
C -2.7353991756103646 -2.488206602036812 0.821216308720419
C -3.8212570828419428 -1.942979737994644 0.3646352375729026
C -4.858802251055793 -1.3236826629123664 -0.11875506703156896
C -5.885335794042979 -0.5654853740679688 -0.41557584395877645
C -5.742308494286161 0.9322243332974569 -0.4761802480180746
H 3.1100948152504038 2.860094300781596 -1.2171967279759615
H 4.241260108549001 4.209600368031931 -1.8370557736581903
H 5.76725622717325 0.9946641605175013 0.3882872116104682
H 4.616347019346192 1.9678111712131707 1.3768649249185871
H 3.8488679673880837 0.3490983867697198 -1.1666930044531993
H 2.603693208289672 0.8941285361068791 1.5440930038094887
H 1.6721663243453198 -0.7787384838566308 -0.9192926838388641
H 0.47990599041453236 -0.19429887645019395 1.8113831320100133
H 0.4353387090677314 -2.462034535504808 -1.2274748899089059
H -1.2765241850180535 -2.9493092392303923 -0.9833117930667638
H -0.9514562726707495 -1.3347855379365021 -1.6852383466796528
H -1.587288562740615 -1.2138353124060073 2.1575451902891882
H -2.66336039180533 -3.5538611502152397 0.9522631826645424
H -4.870326817263373 1.1862117595040995 0.17512566401394392
H -5.486808620559912 1.268343829145849 -1.486224994330249
H -6.630486244798021 1.393894597291013 -0.036477450382489486
