24

C -3.946906349159284 1.656733449978994 -1.1010358242695528
C -3.674622568322909 1.8878674248406224 0.15090730391483084
C -2.5819929927361267 1.3638430085999704 0.9033444157280703
C -1.4287909658102755 1.2894021108241709 0.2690622767794642
C -0.3506385862071435 1.1567049904726128 -0.4830147076087435
C -0.23534398855215913 -0.07366810350730942 -1.195983482285156
C 0.4340974621178828 -1.0862978675944384 -0.673139439463287
C 0.5640086391357874 -2.3754147444148295 -1.4025418157439729
C 1.0778301772619232 -0.9653326853923996 0.6623650907068708
C 2.1986964998111227 -0.03711655621664915 0.695223015070222
C 2.954622369530707 -0.0795000207522687 1.7695140356815064
C 3.6613561429483275 -0.1863606464957839 2.8794604783327205
H -4.811573878483482 2.1196696257615697 -1.5545279125639546
H -3.299216097704236 1.0026539940521038 -1.6657225063954662
H -2.5280675234705825 1.0159526909688146 1.8976623277237668
H 0.28033978620832406 1.9990388661925822 -0.44616099463994524
H -0.6817941499388463 -0.19708293302611188 -2.1520878292588876
H 0.08990073577530625 -3.2128409114583256 -0.8293889384994277
H 1.6311932901817157 -2.6292687224412923 -1.5668901945808364
H 0.055586000481919584 -2.2737713214834767 -2.3791618386347992
H 0.29710928521459135 -0.6097058642999292 1.371413417956953
H 2.507072754725997 0.6778367210486976 -0.019177563235064282
H 3.3330999819773233 0.4397921883808328 3.665429169334969
H 4.454033975006924 -0.8831346940528284 2.8245998409482933
