16

C 2.2063483504974433 1.4220858259032392 0.6228884565590849
C 1.6693331275567629 0.22246828416426231 0.3951050312214069
C 2.0168550788954933 -0.6105831379466164 -0.7613135122847637
C 0.9431257876873785 -1.5193650438016895 -1.1859003025629633
C -0.29770962325021966 -1.1548727489894892 -0.916149212283296
C -1.3992877632266725 -0.4886726008617909 -0.6629135625194491
C -1.9185419562749906 -0.504916877265124 0.6860858082315845
C -3.0257583310376823 0.16306731531607244 0.9466454934120695
H 2.9328811672627246 1.7737072059083696 -0.09891348774307829
H 1.9191485384588705 2.0023164682938983 1.4909049131448606
H 2.945485067582472 -1.1866007645860737 -0.4805835972569646
H 2.323098591804126 -0.012712666714598066 -1.6634608554709038
H -1.905571089218015 0.059148601747996764 -1.4278884589774088
H -1.4250417375886852 -1.041931144257726 1.4608117619400474
H -3.5722403099267357 0.7267872599656434 0.20394937622514267
H -3.4121248992230986 0.15007402312407575 1.9538176527654938
