18

C 2.452041889438354 2.6325244485188426 0.9161754504762352
C 2.067718362081974 2.699959927259535 -0.31806282357723054
C 1.143291318656861 1.8442254575956227 -1.0177379711895338
C 0.5780160905278929 0.8487053308195049 -0.3930262171028336
C -0.34920875419485015 0.004004604783698638 -1.125180287565175
C -0.9345461707721364 -1.0181608212716742 -0.49768710414759854
C -0.877464414464479 -1.5389762733586683 0.8240368232061255
C -1.710813243811622 -2.4784052340553973 0.5679903954536736
C -1.8843329162863791 -2.0830819967779317 -0.8023917201604297
H 3.1577043358488686 3.3612445215235818 1.281995805300218
H 2.1033615128447325 1.8910363303385773 1.5856294090503003
H 0.9241002236434489 2.0282545432359167 -2.046040835035683
H 0.7935988506566383 0.6455341776255464 0.6677753628341583
H -0.587037460469861 0.16983153352874483 -2.165521414631627
H -0.300021419235201 -1.2181256372240827 1.7371589631763882
H -2.1318235133451524 -3.28809166186591 1.185574351157711
H -2.8958542134856953 -1.6901927902114957 -1.0911610008294168
H -1.5487304776909256 -2.8102864604692823 -1.587618983358565
