14

C 2.6870625436367144 0.14428375498513946 -0.06450627709676268
C 1.6482183745330512 -0.1467382904301861 -0.8179387304425341
C 0.3242344538345484 0.36501367772709514 -0.3884505359914272
C -0.7665608772153996 -0.6708272171694954 -0.5470722710469141
C -2.0642015123962447 -0.02894245340011147 -0.07686772404085425
H 3.7143536526444954 -0.1846084545947921 -0.2903976067317161
H 2.546694751987117 0.7345386382484251 0.8249342956323519
H 0.09376947363386211 1.2369665392978195 -1.03373008364584
H 0.3237736647230915 0.6942587478078969 0.6672039726321127
H -0.5846855863143272 -1.5546164651778847 0.0983663171692261
H -0.8731521843575698 -1.0045962854803516 -1.5958410131108738
H -2.9288610518208866 -0.5767687705885346 -0.4787188880023653
H -2.078334881549244 -0.050921070433906576 1.0273851458762406
H -2.0423108213392407 1.0429576492088635 -0.41040710555752546
