21

C 5.719804131953204 0.7368904073945333 -0.17622612426622106
C 5.701338853471964 -0.5910078770420445 -0.053757765436021406
C 4.633695723791766 -1.2943315035813927 0.6267128644769991
C 3.412470328461769 -1.0463871121031467 0.29145863802607663
C 2.154750352701492 -1.1257602682413228 -0.009476919778857595
C 0.8650733815716034 -1.0975922051571014 -0.18119812695878987
C 0.2164321821593059 -0.11956456131035202 -1.0327880890427388
C -0.9633720688647317 0.33707624317960055 -0.7568273417505417
C -2.164968410043517 0.6875338418463144 -0.39801571173886563
C -3.4399140684578824 0.8218140486573493 -0.2404501597621437
C -4.675344556614663 1.2592519247159908 -0.2677655265742842
C -5.7564958748935835 0.2532068020793444 -0.15010462502979707
H 4.8951807279180315 1.2774270399011578 0.258173099405725
H 6.543055314091459 1.207557427979962 -0.6948967220003892
H 4.923475807030421 -2.0079982182794494 1.3991622581517507
H 0.2181541689068797 -1.8230983826197174 0.31987768470946365
H 0.7298240630501859 0.22935111101976058 -1.9086442216211088
H -4.925245987466726 2.311079671441013 -0.3714878346316054
H -6.7183054337031605 0.7073274470839114 -0.47970152951418366
H -5.783903587918399 -0.09096357663369993 0.8900106990035829
H -5.585705047145432 -0.6318122603306924 -0.8199014323362526
