20

C -0.8687547247256184 2.942332799346295 0.3574167004462582
C -0.11510285599703572 1.873047502494702 0.36870444017666215
C -0.5608068484714966 0.5053283895083002 0.28087285181433697
C 0.44804438829855575 -0.5914522194086328 0.30955603859861885
C 1.690416885594795 -0.22801047270896874 -0.4776851139050399
C 2.6332895817191133 -1.409865737178904 -0.3759867068347963
C -1.8377552705185056 0.22691119629391887 0.17691303109128062
C -2.279367173933417 -1.1918746717243591 0.08731440173166269
H -0.4168569458514478 3.919794898209114 0.42984377292993625
H -1.9262357537450832 2.8648010199850207 0.2775770722922828
H 0.7776011330321997 -0.7559805974571292 1.35559166708944
H 1.461114694897437 -0.07473483754499789 -1.5504284974801577
H 2.2101576893474895 0.6392799297288229 -0.015182291621153001
H 3.2218566559045945 -1.4615523987342192 -1.3108072938418283
H 3.341857077077038 -1.2458651341627676 0.4848601388128461
H 2.044344337809096 -2.3415460185769956 -0.202052707693664
H -2.5975058042201673 0.9866101978537566 0.15262491483378454
H -1.5259354259958233 -1.893796128585698 0.5185915186895808
H -3.2078824733135565 -1.3033725037450565 0.6984879808227967
H -2.492479166908111 -1.460055213592221 -0.9470069771018472
