19

C 2.8751301351789693 -0.08992630300749277 0.4817984793210633
C 1.8307549117992863 -0.8528034189188962 0.21374677420012084
C 0.636014974024437 -0.3227722441374521 -0.4989113633974808
C -0.5067589159646123 -1.2696788895805438 -0.3415353548857674
C -1.3748437147010433 -1.0091375849263946 0.8427512375927199
C -2.338059538672625 0.05237254830823468 0.4942650436258903
C -2.0979542101950095 1.3008413490820352 0.26869130433200744
C -0.9693465807330265 1.5746828871997829 -0.36331146687771154
C 0.3723973900394502 1.0628945957994484 -0.02389078349923435
H 3.7121753750339694 -0.528321224798347 1.000507971421139
H 2.842436418372577 0.939986240231916 0.16838565103631256
H 0.8620770555991083 -0.2555309241368044 -1.6035775478411796
H -1.112963749554059 -1.3340184424461352 -1.288955173140971
H -0.073302052309476 -2.2953779650391515 -0.21909520260058316
H -1.902505184373854 -1.9359548843569854 1.1300407177720382
H -3.3688524723392157 -0.2284726274652622 0.4138877687268121
H -1.0978740487377523 2.2383469522483983 -1.1965011782733432
H 0.6039903980261457 1.2108357561378778 1.0705214996528094
H 1.1074838095068187 1.7420341798057242 -0.5488183771646636
