22

C -2.9715561794871888 1.4623939055365613 1.0166217390596262
C -2.085647699136839 0.5242469046985386 0.935796110874845
C -1.5753404561923479 -0.16129828453879963 -0.24029729359830143
C -2.0193147611211715 -1.615489562898594 -0.16502762732177556
C -0.09223799682175612 -0.16766022784197898 -0.30174547333418594
C 0.7398314426645476 0.3851923054733058 0.5467110670147104
C 2.1128859875517776 0.1604277384156188 0.1425257365124077
C 3.3276045099861613 0.6386117007017695 0.8592498576612985
C 2.11961953006231 -0.5391975047076878 -0.9678556445204143
C 0.7209322770944221 -0.8057593909770442 -1.3424123373012427
H -3.445905399260477 1.8457355444193908 0.1340383764371763
H -3.2441397400170717 1.8704318347879687 1.9705724060015954
H -1.9270569763809924 0.2654608150430447 -1.2161494781524442
H -1.2879085057947266 -2.3077151789562476 -0.5986801549456569
H -2.1517733003175996 -1.9289018681254975 0.9071686137008327
H -3.025540679460724 -1.6676019967436235 -0.6127095321170374
H 0.3811111172353391 0.9316699808215885 1.4262212523035875
H 3.0309423521166883 1.308292412932959 1.6773609471033994
H 3.848766531305856 -0.23105920062339383 1.3399020269106423
H 4.020417938780365 1.1399056544202666 0.1614915245506766
H 2.991142592200244 -0.8750750595412987 -1.530989371282523
H 0.533167414993108 -0.23261052229689455 -2.295767774245268
