21

C -5.247299714793765 1.014246969305494 -0.7792536052354871
C -5.2834601413401385 0.20789392390900888 0.25451358735863755
C -4.40213689958892 -0.9058301385833811 0.45863066030003724
C -3.4234129228157926 -1.0931150914853371 -0.38571867183405717
C -2.2723817515225773 -1.0652973697570625 -1.0384257521839784
C -1.2002277050049739 -0.23758041771889668 -0.5073243190576621
C -0.2942665074015976 -0.7869870706913996 0.311206159514161
C 0.7887803902728151 0.014825979358128266 0.8578568250267902
C 2.037861380353721 -0.32075747061041665 0.7274871891100408
C 3.278063699240193 -0.47188649384810294 0.36373805336655574
C 4.549367609398488 -0.6072661020585214 0.13960644617072676
C 5.388048126786505 0.5014480525117356 -0.36734040071775975
H -4.515482654599428 0.8521999361109147 -1.5426797547927102
H -5.946918323901451 1.819443705255431 -0.8447622606384332
H -4.537762749255896 -1.5666848839078191 1.283025668617507
H -1.1502956118649967 0.8077574105836073 -0.7806846270869736
H 0.5678358320361918 0.924020996032954 1.3939417113127135
H 4.999466094306947 -1.5611821547184517 0.33180663623671175
H 5.303045216962197 0.5790974535405671 -1.483337555992477
H 4.928234829441113 1.448421164483521 0.02218608354336227
H 6.432941803291294 0.44723160228803294 -0.025322990761962857
