33

C 6.7137251931436674 0.1556883538451204 -0.0708369707672601
C 5.445529065759012 0.21553398519382222 0.23476574752109264
C 4.379290995237163 -0.1108226649298861 -0.7171899682504287
C 3.1102183699289108 -0.04445801846756924 -0.3905847382755986
C 2.714634487523573 0.36185877389044036 0.9488583024491885
C 1.4316051590364147 0.43783731850486496 1.3077034208470266
C 0.4131871816191848 0.09090174524117133 0.2855959630631904
C -0.9654002975438823 0.5093025625151953 0.7318214257450347
C -1.967871961022465 0.14002739877789264 -0.33444783045306814
C -1.9753767001185973 -1.328478990160672 -0.589891701690864
C -1.2802373365720665 -2.068386191705081 -1.4254070949356614
C -2.994958853030833 -1.873758885567734 0.341196671622475
C -3.9282778595466383 -0.7376131084890561 0.49685608111359525
C -3.367465156982661 0.3928964599181893 0.12293596798599214
C -4.030368631475218 1.708936621659923 0.15399302248952176
C -3.410669608232439 2.8074211177522983 -0.23832184609011997
H 7.099830299644707 -0.13678197977780768 -1.044046804274225
H 7.427746539732015 0.4149031363129894 0.6971636747618654
H 4.6931390556076416 -0.41133613950742576 -1.7096888300414381
H 2.372161690846161 -0.2951526985437051 -1.1291084826208586
H 3.5079097165307163 0.6069568837619835 1.6643168403289532
H 0.44767342071773986 -0.9883507438168161 0.021263329822850258
H 0.629378104572098 0.6624942942466421 -0.6523561002000566
H -0.9391886168267964 1.5947945437050868 0.9324030056940831
H -1.227780110197984 0.03142119021422879 1.7147673010275601
H -1.392238997999655 -3.136714214086413 -1.5033984120603716
H -0.5593552744108574 -1.586507814167819 -2.069196068648731
H -3.516745407969599 -2.7026332778871263 -0.1865378053584668
H -2.560043058644056 -2.203464822196559 1.3033346020214047
H -4.967611385959286 -0.8072442796662692 0.8766103792905612
H -5.046545162389199 1.808294345953696 0.500811462584324
H -3.8565722552661392 3.7780182091421426 -0.2305175386911028
H -2.399322605711032 2.7144168883340116 -0.5869121838055552
