27

C 4.562066691922658 1.1586542226587146 0.21273166783822803
C 3.2910283628338117 0.9808313180193563 0.5114683884474003
C 2.6295418832087085 -0.28915594547159246 0.16365610664462443
C 1.1600743772398407 -0.10907229961734806 -0.1480135749867687
C 0.8762266810636445 1.188512227614876 -0.014232358688825698
C -0.4102431951157749 1.9402703793580702 -0.1937677499291463
C -1.6439195656076195 1.392204604109434 -0.16139244412626705
C -2.8626159625539325 2.1589232283544297 -0.3393862286881362
C -3.877946528355656 1.2690513678884792 -0.24424367849151
C -3.4003899500085817 -0.08822234815361035 -0.006300600682089588
C -2.0977194624359035 0.05201553911277803 0.031059046221437688
C -1.8305191466480903 -1.339140976315145 0.2643809679480156
C -3.127526329173859 -1.543875051080586 0.2378031930160568
C -0.481443122680648 -1.9648131942378717 0.4225690036652815
C 0.5250164407813925 -1.384705847758156 -0.5111725635570009
H 5.113631656953963 0.3799104870097654 -0.2827514715933968
H 5.026181755533084 2.0939872191987745 0.4756862452166138
H 3.104530198008508 -0.662854963628106 -0.7776299856931461
H 2.7346470935592357 -1.0202377152533235 0.9936511582351892
H 1.6645778665830302 1.8556053024106134 0.26201290522934423
H -2.9019515558202937 3.2242446852486863 -0.5108598152774939
H -4.923004077779005 1.5039003927637709 -0.3295017045224184
H -3.754120367245625 -2.400172608020761 0.3454964552160472
H -0.5887346822497386 -3.0458382813522413 0.2560006505699664
H -0.13246596300761512 -1.847065804453888 1.479146605947343
H 1.3220864473169014 -2.1619281571476727 -0.6478278335894545
H 0.022990453677565272 -1.3410277812574265 -1.5101384293187403
