16

C 2.4467002655820385 0.805372840686766 1.5624344831599664
C 1.9591857533194041 -0.42486628122448694 1.6018874346032304
C 1.5175319210786093 -1.1549976820891006 0.3790925180097748
C 0.06509437882529225 -0.9604327690658492 0.14166160529315155
C -0.34665021849523725 0.08561604261443494 -0.5336395594120086
C -1.7751980068210376 0.3561972681935277 -0.8157633146255506
C -2.6821903601863437 -0.0749130083513324 0.3018001053383923
H 2.7422970685148957 1.2574122159708851 2.500862974118483
H 2.558750468581845 1.3647010762995135 0.6475844519178957
H 1.7745081699506653 -2.249958356861178 0.461336272811091
H 2.1255206642260904 -0.7241178695129069 -0.46715526776155153
H 0.37858862998977716 0.7824984633110698 -0.9023156990451418
H -1.9563631905629162 1.4243274922213673 -1.039344269443516
H -2.98828139841794 0.8191520741603309 0.9192394407379301
H -2.186670978428408 -0.8392631471995027 0.9022414636528373
H -3.6328231671567686 -0.4667283591534381 -0.1539536909890001
