24

C 5.076526379484039 -0.2034595555785509 1.0923581841908092
C 3.9927384018362 0.5585896132933367 1.1085535287624482
C 2.893427372063763 0.38720104948157463 0.21821375653181277
C 1.885161878111762 1.2311392140962099 0.37823522109616514
C 0.8965281632079268 2.020756916927306 0.6968497765023719
C -0.05158768913513831 1.5378079816055976 1.687912518871628
C -0.625280978975177 0.19717610838632732 1.3710493572575833
C -0.5992799858703981 -0.3182480167591704 0.17049456655572426
C -1.1921654546225129 -1.6615009900651132 -0.06796621918963161
C -2.5947558001885036 -1.4974754598374949 -0.5789184643450873
C -2.6587672694438655 -0.7433957238163383 -1.8413083126459282
C -3.742695441083084 -0.08554187312055775 -2.2425287802520573
H 5.836699216916127 0.03919478198122053 1.8272221886307871
H 5.124985450390906 -0.9833091386824676 0.37554411604725507
H 2.7256052873186722 -0.3014052377717637 -0.5621449828905315
H 0.9190427609549545 2.9526824845796105 0.16660961903457108
H -0.8771024798155206 2.254489906763939 1.8466143258853747
H -1.0687640466059665 -0.3336808569447136 2.191990119712027
H -0.14015924910202632 0.25409000162340206 -0.6311011403552218
H -1.2140898038844476 -2.267841303466678 0.8535332273029486
H -3.082175063322393 -2.470411212715208 -0.7147764099376355
H -3.159054349111528 -0.9365070280519611 0.2158732814192484
H -4.657040293861637 -0.07022148075959783 -1.6464331895956936
H -3.6877970052606104 0.43986981883223614 -3.1898708044941966
