15

C -3.341602581490904 0.28940619153769204 0.8231993463674541
C -2.7993193147569597 -0.9014755202084117 0.6559452586124266
C -1.8362607515095968 -1.0884098426823172 -0.37077612815874883
C -0.7759515031833363 -0.337710733239287 -0.3485008445159017
C 0.2840698578358649 0.39272126404755986 -0.1665808348520755
C 1.3182806945884231 -0.1548298444559868 0.6517798590123425
C 2.5544697620218817 0.09012603763425936 0.2667985565977277
C 3.7558641673692814 0.37893955782805266 -0.18654075467739317
H -3.0649533487773812 1.1130774948111137 0.19619635493835463
H -4.073379263181644 0.46029460394519095 1.592464836727333
H -1.844972012779271 -1.7775536363914042 -1.1916062495320312
H 0.2651640794923361 1.3223091081722214 -0.6476209478944471
H 1.2485307183762226 -0.732317593992298 1.5277232442378479
H 4.147985453741446 -0.33136523574785637 -0.8691158066996383
H 4.162074042253397 1.2767881487414716 0.19084986556411235
