20

C 3.2864822174442336 1.2932582546634186 0.009325595252992591
C 3.14842627288754 -0.018307500940383456 -0.07525277959168135
C 1.8560726349541978 -0.6366915008167355 -0.3017937113759794
C 1.787078655119035 -1.9609013659674566 -0.37647883854305847
C 0.6742986048546161 0.2349119907739014 -0.439274361606513
C -0.5984573750408313 -0.5022615672191103 -0.6686484802545404
C -1.6729802999410543 0.012088590444821516 0.2332456135804893
C -3.0752916762341926 -0.5798902005341143 0.00707526613804798
C -2.77507496351533 0.8634863718094696 -0.2685590585847272
H 4.256497215830127 1.7394765939482293 0.17849204509077896
H 2.404686922521591 1.929291154895301 -0.09396722827320733
H 2.6728566560042553 -2.5681223979373664 -0.27119272354175983
H 0.8539772942215186 -2.484051588221809 -0.5437706942341377
H 0.8512697417241483 0.9186900743120074 -1.2906729874290805
H 0.5860713922135338 0.8598555754296279 0.4724936138584577
H -1.3530015702165048 0.14089625117646581 1.2995725887922855
H -3.219674466592367 -1.2244991399994274 -0.8867835712219093
H -3.6482854227510377 -0.8233983584632787 0.940128192992383
H -2.8231354782350606 1.226843196103193 -1.3040147229282348
H -3.2118163552484753 1.5793255665432193 0.46665318617713136
