21

C -2.037565053483638 1.1652837250828083 2.2326015455869572
C -1.7662817918622775 1.0595751741819912 0.9474039338469478
C -0.9390039148194594 -0.07615203792419199 0.46293743996100695
C 0.3990275061323351 0.4915627062938722 0.04561755833174602
C 1.3465849305593203 -0.5374196627371842 -0.4693373688528282
C 2.6126415666049687 0.1437131909009502 -0.8422356748899087
C 3.7390307639093567 -0.1923039197145594 -0.25584813456411115
C -1.597302282023404 -0.728934392337791 -0.7020603648261786
C -2.764533675940409 -0.3218271949222823 -1.1412904029129611
H -1.6575267483006388 0.42850163002774566 2.9181368495549553
H -2.633071851433742 1.9708577213215845 2.631874772828619
H -0.8495414395237791 -0.8326167508291735 1.2494291706806275
H 0.31164930532645785 1.4002068011691304 -0.5470515800042591
H 1.493771453565725 -1.2965844482548334 0.32232333003463176
H 0.9770536791450165 -1.0747798014856627 -1.3658801884900624
H 2.5949818573839623 0.9179737226088427 -1.600934048353803
H 3.741922787970273 -0.9585584845356145 0.4916526350408813
H 4.655688125101395 0.29617677284988975 -0.5212565619367562
H -1.0822760968579042 -1.5444691540544757 -1.1692991202131655
H -3.232981202157002 -0.8060702322240718 -1.9908050357964362
H -3.312267919296302 0.49586463458309193 -0.6959787550258811
