32

C 5.574981874967705 -0.07725138249680429 2.129982240044007
C 4.788389846643824 0.7047835545439975 1.3985679402533522
C 4.005428508385617 0.05925066494692669 0.30947559209528275
C 3.4288812519556275 1.094381142354552 -0.652074783984682
C 2.671450547308985 0.371106317253512 -1.6934603211981814
C 1.4201551640866414 0.01470330033501266 -1.4929585304038375
C 0.7381302108610942 0.31665587936829614 -0.24686499130969358
C -0.5210447601748209 -0.04998646519521844 -0.0634235065158355
C -1.2858549782219295 -0.7715086360574044 -1.0947966089562275
C -2.484652236211575 -1.4458422875254549 -0.5193582263286071
C -3.483693630669048 -0.5678452861602338 0.1355868507800845
C -4.083916439293813 0.4821973456680592 -0.8252704057684827
C -3.3203963742072733 0.8386380661196776 0.4711587826361848
C -4.249315801182091 1.4034501232929402 1.533172515988636
H 5.682055468492528 -1.1302370944367597 1.9895476512308248
H 6.137015977012198 0.4417205082558156 2.9258430317399293
H 3.165882639324323 -0.529601746032917 0.7299890909283963
H 4.645982828769147 -0.6347412588083371 -0.2809180888523934
H 4.264658074108097 1.6157409154244093 -1.1958302689739075
H 2.8234061539866304 1.84866298385104 -0.12580552457006244
H 0.9331989949508567 -0.5113655444137619 -2.3024022271340354
H 1.206930916926503 0.8397847899535498 0.5706096433740325
H -0.6408574325773942 -1.5663714436106941 -1.5361687581500978
H -1.5806049134249656 -0.12275705470333283 -1.9464906696783675
H -2.153036987759952 -2.288272323033859 0.13132667343081456
H -3.0086643714803705 -1.9581047045411333 -1.3804826704441209
H -3.570517447864039 0.6703297206099704 -1.7719932386095858
H -5.172126836361825 0.4681818750539045 -0.8084660930688973
H -2.424330385028912 1.4482433423224355 0.3258976499416366
H -5.1367023569431325 0.7399476420544026 1.6886072821198104
H -3.7313162967074796 1.6248635542442535 2.4695378414435663
H -4.639517209669437 2.360023887074811 1.127462127938218
