12

C -2.149447197464473 -0.03888542250650113 -0.28078718280192455
C -0.9783333468254004 0.028169595158815768 -0.8987895143747366
C 0.21284311115986299 -0.5052126725066756 -0.20010345388319273
C 1.5617706761919625 0.057111552470667286 -0.448401549122135
C 0.8362547744283834 0.46415678226707935 0.7834423745793249
H -3.0497200671523483 0.3416684103774222 -0.759030632554025
H -2.2498036620256996 -0.4679224934637012 0.7060422679273523
H 0.11708510604205395 -1.5702980849546015 0.09804199421407428
H 1.7356021314961088 0.8307466637127379 -1.23291257784591
H 2.4011299439364833 -0.6471513631378869 -0.34504301423703576
H 1.0943122232132858 -0.010118443318222026 1.769084418975174
H 0.4683063069997975 1.5177354759008588 0.8084568691230338
