34

C 4.719794942363913 -1.7401095247271237 -0.229501339808657
C 3.682571042821052 -2.320723728729298 0.3508155537579228
C 2.3521417672074896 -1.63962205730641 0.5449802352746045
C 2.450157783256836 -0.20966251909510641 0.1431576154581559
C 3.3962843154219664 0.5460601245630712 1.0385913848381747
C 3.8943901054210865 1.7086463338026823 0.7301118945262653
C 1.2322165028567595 -2.391614378248962 0.047090218540473704
C 0.23835110689220446 -2.0600966340702045 -0.6817932938135443
C -0.12318653418215662 -0.7815357889276091 -1.276036000358056
C -1.4750148496983495 -0.3384800402788241 -0.7811432888465243
C -1.6521923850057911 0.7806402346289841 -0.1287559021773492
C -2.9792650155396605 1.1512510598384313 0.3214551747699051
C -3.3110461486074354 2.254324933270796 0.9934985442764128
C -4.764653422502337 2.2685662355018748 1.2697408725687727
C -5.221602636659035 1.0007392189700173 0.6520734377255871
C -4.205573919863207 0.3563094177177804 0.10767009027241567
H 5.653925926002342 -2.3060750241643744 -0.3319705204645531
H 4.689551595682496 -0.7381569827744127 -0.6057467970176658
H 2.2463411924665637 -1.6508033699237799 1.6878296374424473
H 2.802732626425632 -0.09675505829311361 -0.9220099595650284
H 3.6497649966048695 0.068005431508954 1.9729961601118118
H 4.567466245520127 2.2169303697831784 1.3970462515383857
H 3.637769729942507 2.1804920390316593 -0.20299877590256885
H 1.2364440294358643 -3.4906081723589177 0.365512123557483
H -0.5087572143620506 -2.8824006136983082 -0.9252596576104776
H -0.2892046973085646 -0.8759963630494731 -2.3974960836266113
H 0.5275380350982523 0.055767947277886 -1.1299578071079446
H -2.3277949115175254 -0.9693525633528326 -0.9730336136193283
H -0.8145666069390246 1.4233432708945655 0.07248305841374784
H -2.5768589020789916 2.9982268555738303 1.2698688272698684
H -4.997911907097125 2.3231154371109417 2.3508755622202835
H -5.192817987519282 3.1326929459611934 0.7073690271591709
H -6.253087900497983 0.620477441980434 0.631937717551732
H -4.283906904042861 -0.5935964784173103 -0.40384708986618995
