24

C 3.1442396862994046 1.9345625915321842 -0.2072086743952787
C 3.272677438105544 1.134068429778208 0.8324792721288278
C 3.061123206772319 -0.3174505788246912 0.8181658904740282
C 1.6740338894993267 -0.7015122913278371 0.4628529232764805
C 0.6473943543600613 0.05362973179137558 0.17012232650436365
C -0.5086077897708421 -0.7864544625842975 -0.1111217941276742
C -1.8544139251478826 -0.2734893733669059 -0.4811974755707593
C -2.4297812708622963 0.6150927507862423 0.6075773706629111
C -3.801741273385736 1.067213838895515 0.09838727227524809
C -0.18374409123653307 -2.061840272294999 0.011167840520535141
C 1.2376109522442227 -2.1260138730858644 0.3883659511628317
H 2.8662676056284235 1.5778740207794815 -1.1765747112748668
H 3.3398674051867445 3.000879898737079 -0.024821821065664957
H 3.330663098894548 -0.7298461466000681 1.8092290044009347
H 3.7349854628960943 -0.7778764697186892 0.05107714145749306
H 0.6923697505131741 1.1351335585709144 0.1510438085329992
H -1.8181069609051992 0.3460494566214095 -1.4110247179639088
H -2.5570458036825063 -1.114825582474086 -0.6419097212321044
H -2.5534801943855574 0.05614867202279015 1.5604576972478286
H -4.3211280630900095 0.1536736184322776 -0.29604524018617234
H -4.3923147216855805 1.558595754240752 0.8831654077897308
H -3.595196810643825 1.7306354448977581 -0.7690080920704278
H -0.8532820463810961 -2.8862557797200825 -0.1420557256239204
H 1.86761010077721 -2.587992937088471 -0.421105237857684
