21

C 3.790255258703714 1.3789650809230058 -0.4126021709493057
C 3.4096150426836367 0.37500845719939724 -1.178565206884408
C 2.0207299203645306 0.09761080089938957 -1.5178142708562434
C 1.0100015820142536 0.815583503306827 -1.097561806629492
C -0.3660018159358186 0.4326613086078913 -1.512065752686467
C -1.1917485924634412 0.13138086629373472 -0.3250036413797719
C -0.6927176142914886 0.2179496013983045 0.8728786556521577
C -1.478603338415339 -0.07040929202036941 2.03543239471523
C -2.4143095572427873 -0.983128896220733 1.8979515355985634
C -3.32327572378688 -1.9004065157647918 1.6654317125292255
H 4.844220911958147 1.5030577081361787 -0.21783102029095852
H 3.07138440097615 2.0525511022501584 0.004455233891483963
H 1.85386199053202 -0.76512466375951 -2.1601282039641827
H 1.1241266728294705 1.687293389371652 -0.4541366048608117
H -0.7620264565891521 1.2928463825367988 -2.0952056631146436
H -0.3411825746887926 -0.43316506449292524 -2.2042393094573796
H -2.218906310779701 -0.1609652356197651 -0.501049388919706
H 0.34027406455961673 0.5135072708380665 1.017789810436553
H -1.4244574062544697 0.34240105455990544 3.005456629256156
H -2.995680486044066 -2.899866110358462 1.8445569703556475
H -4.255559968133681 -1.5329843202347313 1.332250097557647
