24

C 5.034464086754331 0.49644354661005113 -0.8537835456947915
C 3.8852177856021073 0.037244834108548515 -0.4152372605933884
C 3.0560749457944274 0.7688804538897185 0.5269070112712118
C 1.9142873383317416 0.2660159444592725 0.9351700228042058
C 1.4507471421725942 -1.0543189916606839 0.44383146088744574
C 0.1425114649701927 -0.9606362052278039 -0.2675372881756267
C -0.6180847201494144 -1.1185115438190625 -1.3632827139246544
C -1.2674629239158766 -0.5975856407675852 -0.1922044061086825
C -2.2727058273345397 -0.12726497446323604 0.5410012453414956
C -3.6251522962510125 0.02201080513543852 -0.02602256805761694
C -4.003542974045821 1.500948081189523 0.07073858412082802
H 5.6083472717276175 -0.08635717515602005 -1.5508593130769857
H 5.428274426668425 1.4472315888852103 -0.5369445257176009
H 3.3940100263490836 1.7234902459613937 0.8804431598151079
H 1.3295258213691559 0.8423821481799731 1.6352063198012285
H 2.2168696509954637 -1.4996093040295386 -0.2107513185329294
H 1.362303154667145 -1.7554154483798354 1.3242528043025943
H -0.6865446958767202 -1.423105896289673 -2.3948546187630404
H -2.1318151191416335 0.16021602938080207 1.5737368499389983
H -3.691177946778974 -0.32424605656157995 -1.0738757487568868
H -4.345795154049221 -0.5289113323947604 0.5911013197198446
H -3.473264894018798 2.0433827241097027 -0.7312695670445432
H -5.097851886043319 1.6400915931425548 0.027956536823561178
H -3.609234677796805 1.8372109620446346 1.0662775596203706
