9

C -1.9130599301543816 -0.06717430877024046 1.0195949658704884
C -0.9250592236644235 -0.7012226127095588 0.4562123664284493
C 0.3536965677130587 -0.15571832548157288 0.11050735442933962
C 1.0515364750258975 1.15456234217297 0.2060435068045242
C 1.7030675461775862 -0.06302684090150888 -0.3898174773921823
H -2.82474770737454 -0.6433988320707955 1.2134841279236637
H -1.921808723377502 0.9554232240082712 1.3100826371000243
H 2.546863019771436 -0.5109219025933355 0.20097727848051913
H 1.9295119758824237 0.03147725634625849 -1.4693440897084122
