28

C 4.714397434630324 1.0433418486116846 -0.5096638223695398
C 4.0326045333857135 0.3826411676738764 0.412913179845745
C 3.5286516361534117 -0.9620997947375077 0.1290626727248066
C 2.0443352821114984 -0.9339684550170156 0.13736086622752597
C 1.3883256259705476 0.16175284747911006 0.370323054013343
C -0.03663326730780944 0.3207223839628366 0.40603275752408313
C -0.6601115986270608 1.5032017337465948 0.6584796375822808
C -2.0566884758475465 1.303179351466294 0.6269457682763712
C -3.009281961972203 1.9981863441846475 -0.1747262705384984
C -4.046307291988307 1.1886503550394927 -0.5086601361298698
C -3.770812131268261 -0.15133392559866052 0.11249698235407145
C -2.265512608380621 -0.106083178538765 0.1998405303412051
C -1.0847550931855083 -0.6634071212671439 0.12402989135055585
C -0.9172099039175622 -2.110237958923096 -0.21032052080816882
H 4.896494567934219 0.5927595908284119 -1.4632150982698124
H 5.0677462039746395 2.0407459749291497 -0.24914104970452142
H 3.8999561152055566 -1.719985772011066 0.8464967874952287
H 3.8284537892035484 -1.2926270222520706 -0.8924849175281607
H 1.556565014387388 -1.8537383720376845 -0.05516632314477963
H 2.0260964265180306 1.0477748690187458 0.5565897644175363
H -0.08733915060716972 2.4417550445257836 0.850709137138429
H -2.9969557157293663 3.0280827161858186 -0.5217561235639452
H -4.9159881056519925 1.4112717089164983 -1.0973794125454543
H -4.145598614661345 -0.19131457798838775 1.142722582832545
H -4.111187531400678 -0.9430929058539458 -0.5568207088602664
H -0.42871322758879365 -2.2646966666115382 -1.1849835601110865
H -0.4978088899310736 -2.7145180194348284 0.5927049442200626
H -1.952723061409487 -2.556962166297496 -0.3675469479525058
