24

C 3.8761360683674204 1.9545763679476227 1.4453169263745627
C 3.1391778678171316 1.4033753717588535 0.4955281697617981
C 1.7281333626805084 1.083129624279995 0.7626960588287157
C 0.9613554897248772 0.5328452498526113 -0.15951649057955794
C -0.44130250374496216 0.2207285167199667 0.12369384502204867
C -0.6188200759187205 -0.9761072656814911 0.9571577895220288
C -1.416975242874391 -1.794335169445001 0.29033320014615216
C -1.8239960428270428 -3.1201442444666183 0.8291815931450693
C -1.7952288044058429 -1.1854660087137507 -0.989328553113363
C -1.2367280597696002 -0.0040352039285380635 -1.1115673321243256
C -1.337001225978975 0.9427440869939315 -2.2100117428189217
C -0.7143159493784319 2.1096681070591394 -2.2003389132529936
H 4.921235532294827 2.1804634727157226 1.2153695739922563
H 3.438885845321762 2.163764158551402 2.4031553994658976
H 1.2993416415553627 1.2986704906715485 1.7314256700508721
H 1.3797469300739924 0.31313449973838614 -1.1313959936280578
H -0.1692757156943955 -1.128333517892897 1.925819195321039
H -2.390845733460542 -3.705224260395388 0.07538426972293791
H -0.9867386004511408 -3.6679120831236096 1.2831306140973906
H -2.5478655093793776 -2.916736028104441 1.655270366667604
H -2.44663731811708 -1.6571977575919459 -1.723048907852369
H -1.9344214510359006 0.7336501877352132 -3.0994499888030473
H -0.1021116243471071 2.399779904687906 -1.3621745159556613
H -0.7817488804526835 2.8189615006787725 -3.0092308467460107
