32

C -3.818792568445341 3.3558001640662614 0.8070965545110242
C -2.700739869546658 2.6412325711362006 0.7255519113878072
C -2.8057717918251455 1.2176894742438433 0.990643915123215
C -1.732528794959895 0.6024818159982108 1.3830399728313176
C -0.6715035541086415 0.0030656006310532027 1.8812497579668501
C 0.14228288032771783 -0.42548971712683625 2.9636742954036697
C 0.5175636670192479 -0.709650378690035 1.5267421553448708
C 1.4904034556673347 -1.309250845846084 0.8504828654628783
C 1.5357904095956076 -1.3981554362978679 -0.6086053404179366
C 2.5606222174380346 -0.47974565467907787 -1.2254069482841963
C 3.9328908592919376 -0.7826991701454044 -0.7450111458047173
C 5.013858507267476 -0.27016905903418464 -1.2648816453086904
C 6.312977639648604 -0.6411897226422049 -0.7094596072466215
C 7.43312032034858 -0.128475950126875 -1.2258973589119704
C -3.996528139633062 0.4393501054399432 0.8545107668423976
C -4.99089582784075 -0.2318879004819566 0.7292212716352939
C -6.185433841824143 -1.0145523666906269 0.5949356275844877
C -7.198479518851689 -0.8307811973086304 1.4206824937573492
H -4.77738781665367 2.9655534297316155 1.0502695592664715
H -3.728985308462844 4.427428422786777 0.6055278443618985
H 0.7628980559885276 0.354622528077673 3.484901097581267
H 0.5721709799341774 -1.243701894187998 -1.1152237783977614
H 1.8543586157411949 -2.4512479673624554 -0.8595472259225014
H 2.5552381337278742 -0.6310711549487193 -2.318214881554876
H 2.3337816256854156 0.5654897834633744 -0.9299129556874995
H 4.974525585918978 0.4262576990476462 -2.1007047509302073
H 6.370179540432123 -1.3329471998049036 0.12210495320715427
H 7.391325664256955 0.5599664001517155 -2.052338164532848
H 8.374494456184452 -0.42457079463552067 -0.7908486952392498
H -6.302734597166174 -1.769717301952389 -0.17008210940613555
H -8.118554905768375 -1.4112312298838747 1.342065545883142
H -7.100146079401501 -0.07240305291946586 2.2009331467444153
