15

C 3.028298150873043 -0.28896835343009164 0.3149744657556542
C 1.7388192009167498 -0.48273171387919306 0.1213733243978421
C 0.7806934643634362 0.5502689256112259 0.5874727796869863
C -0.6152077852316583 0.055397057368239994 0.4903703535288924
C -1.5489734832084896 0.6390544859561541 -0.2493684037259059
C -2.79964268586526 -0.10125798032418178 -0.11733015355535216
C -2.5079319402917433 -1.0763853684875764 0.7283982082165832
C -1.24288813091295 -1.075914589538436 1.1170777115787078
H 3.3477535110661307 0.6162309811668653 0.8071737286941562
H 3.7888392546257212 -1.0000620444863975 0.0014287782554530414
H 1.0239461730900719 0.8526624010568781 1.645493027742824
H 0.9368628681713497 1.4477367263991177 -0.043532098641570115
H -1.4289894587762164 1.5354805639411426 -0.8709357503143412
H -3.743358365511656 0.10461619496109134 -0.6015077607594032
H -0.7582207733085338 -1.7761272863147266 1.773496426521105
