35

C 5.78626094873628 0.47020280006664134 -1.4473871406995806
C 4.706197404611373 -0.07756851456325656 -1.2304172108845985
C 3.394954165710326 -0.06623179923085548 -0.7648969471309244
C 2.697540053160616 -1.2243560110250162 -0.8651631741763557
C 1.3440462883861042 -1.471483391203358 -0.4619886726600946
C 0.5505225223443596 -1.9901425638610217 -1.6472912620809887
C 0.6404143226918144 -0.3183722155016574 0.1305780753245147
C -0.7349974670899126 -0.4494214978585702 0.5762395697472944
C -1.4995307942003406 0.45676902084153853 1.1165423533897954
C -2.865839503165162 0.20868057493911987 1.524022495641188
C -3.362817650044407 -0.9804697060964194 1.3358623562197367
C -3.955792702539703 -2.0680804003601034 0.8588033532907022
C -4.543029884685039 -1.945502257644472 -0.5173199836616812
C -3.6972896913254596 1.2220120574179838 2.1200114360109255
C -3.296940045775778 2.46302052565907 2.3575635747032266
C 1.2856613791805405 0.8169144271020178 0.24240468707693302
C 2.6780688165446627 1.0412712638352268 -0.18129627302520618
C 3.2396066599320976 2.2214327661525246 -0.0265404174692465
H 6.673048403835618 -0.0591263479986076 -1.9181031231025891
H 6.047595302926473 1.496258460294645 -1.2328696755986936
H 3.2399285920488596 -2.095582950953741 -1.3166512592312858
H 0.8814430925014559 -3.0159037093680308 -1.8756216640304428
H -0.5285469517618234 -2.0069069717236077 -1.444649175786034
H 0.8329968974971679 -1.357371165128613 -2.5119056552433636
H -1.1980927722066694 -1.4407013223534821 0.44324989878516774
H -1.0526652406128791 1.452615273662041 1.2565314452867558
H -3.7582564742117768 -1.4958657917504896 -1.1604972522783472
H -4.768670425057902 -2.9470336156574106 -0.9318475129359765
H -5.412637774938366 -1.280382040477539 -0.5307945153717228
H -4.739217712065483 1.001745490684185 2.414749841977462
H -2.2947286123103607 2.7491896828178546 2.096564028887061
H -3.9705055011804853 3.1818156041398273 2.8093969355086945
H 0.7716385106234744 1.66673450323684 0.6775126466632956
H 2.668364949303214 3.0477042745656804 0.4216910293899873
H 4.241270893138135 2.432454963906397 -0.31648281253611465
