14

C 3.290767006487982 0.33662991828620803 0.027734897923178133
C 2.552409372876428 -0.657565981955645 -0.423846046307385
C 1.1169929498647704 -0.6986025612875477 -0.18940494701197147
C 0.4791088854539531 0.23803269935439705 0.4762924794954827
C -0.9740410627586763 0.13182031043482004 0.6755926099704479
C -1.6948312031975845 -0.2934441823130817 -0.5484166945661348
C -2.9471242224676626 0.055582835730828895 -0.719785112260921
H 4.357334468294287 0.38351078591061544 -0.13681770232511611
H 2.794533359183809 1.1206377559785228 0.5781441498571044
H 0.5784990711700102 -1.544172104038541 -0.5896563586119279
H -1.1900737173392966 -0.6149740412263134 1.4868875128342651
H -1.344773968850069 1.1429898225715331 0.9946502129212147
H -3.524238418857403 0.6511928263241853 -0.01735473381773042
H -3.4945625198606813 -0.25163808377002095 -1.6210836718326553
