18

C 3.791717421530302 -0.7375430588942486 0.13454118148744415
C 2.487646782485612 -0.5930088937366641 -0.024977257561883758
C 1.8460505142160155 0.6649450181439328 0.3131943375574045
C 0.5471089591190015 0.7863334568269258 0.14630236177665756
C -0.22486995190999734 -0.36017177880075923 -0.38073775151778144
C -1.6644926860716514 -0.05419995089086871 -0.3329364987006845
C -2.1179983095359987 1.1205539011380508 -0.700989173750974
C -2.60217167783951 -1.0899828698970704 0.13699780750929147
H 4.211300897164834 -1.699928074159936 -0.13566321557863203
H 4.382846925074354 0.08414302464270901 0.518333544246868
H 2.3977550609591805 1.5100884821834222 0.698898483188485
H 0.028896509427591692 1.715484655836772 0.3888074164733261
H 0.04751425282413602 -0.4803450742773538 -1.469243566401731
H -3.1784751295844798 1.3437558050078249 -0.6649996614252155
H -1.4155282506560658 1.8921904443219257 -1.0514715575427003
H -2.146026709252049 -1.723633219438859 0.9476795714595075
H -2.8513149836133502 -1.7259056948518294 -0.760527329937486
H -3.5399596243377913 -0.6527761731539233 0.5787235964762182
