19

C 4.409166889693117 -1.0689475471218106 0.24908570933777036
C 3.1246487115194763 -0.8023517713524578 0.39810522223545175
C 2.6414050062138084 0.48725589838533523 -0.10053566856276275
C 1.3611454886688257 0.8072047420266446 0.022678880921532325
C 0.47421643044350353 -0.12369053314937395 0.6455950210239646
C -0.6960022845836058 -0.29427638897616226 0.05270114781508289
C -1.8525922909214945 -0.2946265411580045 -0.5374673677335624
C -2.8404652315443157 0.6597835342889604 -0.10985784239260338
C -4.007552089766822 0.1259882145176626 0.6372963026703735
H 4.794555129529599 -2.012247869025752 0.6070313345575755
H 5.096788634643562 -0.3956728944429066 -0.21126112378875042
H 3.3253043743926045 1.183362165467377 -0.5707571662388631
H 1.0528620224018868 1.780305794273057 -0.36556774042065343
H 0.5818566700702331 -0.7126261812596114 1.5109072138617692
H -1.9611693940146977 -1.0210910855180921 -1.3042520116943153
H -2.4806146583700976 1.643702828020724 0.21078935809381638
H -3.750491792339546 -0.6838103660373591 1.3665562727085052
H -4.786517696998006 -0.25634742635553154 -0.06339658440953609
H -4.4865439190383745 0.9780854274173325 1.1811252336173403
