21

C -0.9646591220837101 1.1378859539520072 -3.5694342464693944
C -1.987652318019465 0.5609153425352656 -2.9509594647598623
C -2.372992717201223 0.927785928181013 -1.5635823804837505
C -2.2027763853507323 -0.2541796043692051 -0.6153706766565373
C -0.7998430308158558 -0.6674309664584196 -0.6271716759445012
C 0.03440664601953429 -0.6016779119705763 0.3662880875535923
C 1.4004543104999 -1.039833693598907 0.23991834827034236
C 2.3149803364922636 -1.0170406969374555 1.1705952110477205
C 2.0966981278120254 -0.5321676534967645 2.5231662509218102
C 3.0713640115709553 -0.5389785706746237 3.415118054960716
H -0.36047183406826605 1.899898970320632 -3.1023019803673813
H -0.7339609190355918 0.826463560054442 -4.581432101952009
H -3.418365605430062 1.3029954098670924 -1.540420293627552
H -1.7252045533240112 1.7702967523310607 -1.245452436192712
H -2.539963586037834 0.1053559897848142 0.3868231119642157
H -2.9131126771453926 -1.0390613188739666 -0.9215082627209079
H -0.29381685188738405 -0.21107561483900453 1.3131166348749599
H 3.3166491260440547 -1.3848571246982337 0.9285058081348588
H 1.11349608111138 -0.16509161861951363 2.780286234291447
H 2.9051968032330113 -0.17796363018847716 4.418756575394428
H 4.059574157619656 -0.9022395022800542 3.1750592017333323
