19

C -2.2284400562093105 -1.6612400274141295 -1.688852671452239
C -1.0958348945520833 -1.0816080385040587 -1.3485330778199875
C -0.8740137743980498 -0.20757906476085417 -0.2606853982557684
C -1.8167304150441246 0.13160283095325892 0.5560578190316317
C -2.8208934963707764 0.5951299430291502 1.2322960375518188
C 0.41678326879216504 0.33683394960260765 -0.02886379322640847
C 0.6804796730068529 1.1549965513235638 0.9615853756998924
C 1.902629195367318 1.3218325285300987 1.3366913567812235
C 3.0405201332286538 0.4785463273438352 0.8973167039189288
C 2.786224421558709 0.058016815356717245 -0.5001172244232689
C 1.5432208288105922 -0.0032926682822530446 -0.919765413268074
H -3.1542611104593887 -1.540937580701855 -1.169279598980472
H -2.203222527018972 -2.3031973692627616 -2.5606206317705187
H -3.3435040811147996 1.4473541931143739 0.9431692574274944
H -3.058469571424052 0.04815765650054021 2.081628739091988
H 2.1479286918842178 2.1384627970474948 2.0304464852382718
H 3.1023451107401327 -0.4102294160257841 1.534523353747513
H 3.612639478952362 -0.1901344096367469 -1.1507782711332815
H 1.3625991242505207 -0.31271501821533254 -1.9462190481570558
