16

C -3.1596836535292114 1.2000874784499154 0.7240044794671575
C -2.984278095713352 0.13808050397016777 -0.06618265099842033
C -1.78331554440191 -0.7455849083265838 0.10316802203869385
C -0.6430684685737192 -0.018613528710070746 -0.5173932365891369
C 0.5221279467362849 -0.10058296197181961 0.07785270107444797
C 1.7395450296457908 0.5121415489501396 -0.34111059698430746
C 2.841928858522383 -0.19216570115440618 -0.16300444844724934
C 3.879919865532757 -0.9471565264200366 0.06380889455813236
H -4.026312976181488 1.7991504706899306 0.5680873273988899
H -2.432537119317359 1.4278749219872895 1.492873867519676
H -1.9717894495332124 -1.6958544793128711 -0.4580864827868001
H -1.583714701392535 -0.9576198485868948 1.1637769080678746
H -0.7817038619451047 0.5553291511429441 -1.429091264277662
H 1.9083817195578086 1.456412907661986 -0.7797068144458486
H 4.131693493262237 -1.6056443136408307 -0.7488045585466315
H 4.342806957330176 -0.8258547147287353 1.0035714672983658
