21

C 3.112248936599541 1.201553182267438 -0.3979150281450841
C 2.7103110489458726 0.5811429101637351 0.6917225774349699
C 1.5182087130912825 -0.2995515796867754 0.7108789785163964
C 0.8260273663814864 -0.22691364016927737 -0.6005878496157427
C -0.40634294185447045 -1.0876872254634375 -0.6886571207558738
C -1.44371369727613 -0.7439720721151577 0.3036520105135293
C -1.5018180198641515 -1.4733204911908129 1.3919551965798815
C -2.388056353896728 0.34550125907892065 0.13565599722614421
C -2.3131149848494186 1.0665512514702689 -0.965009167306316
H 3.9881874975735143 1.8398173807144937 -0.38232385176047134
H 2.5843028518752096 1.0918154111701188 -1.328123058678191
H 1.9098451010556365 -1.3387303074207213 0.9166157112450686
H 0.8966628678869666 0.01695300417836701 1.5697609832517947
H 0.6280931815402574 0.8246463933213056 -0.8540464358299011
H 1.5335915875227428 -0.6414230701651169 -1.3720041486880188
H -0.8117220278041601 -0.9766986938300003 -1.712860586163915
H -0.8409957699127393 -2.3029189985100262 1.6022517201261537
H -2.247356114564257 -1.2475854023807273 2.1344608663185083
H -3.1453351875456677 0.5836110852844337 0.8776625277255123
H -3.01470936757461 1.8919757673990205 -1.1118984676043713
H -1.5943146873301604 0.8952338358839721 -1.7448310042438084
