23

C 4.2450880812628435 0.7386383681165551 1.1946042877769922
C 4.156829793106821 0.5749620464230931 -0.1216277918804705
C 3.0182009448526426 -0.09427335261253003 -0.7836587028683947
C 1.8116778166474332 -0.01064234077509173 0.024957626061020453
C 0.7922470198100049 -0.7375689757554715 -0.3874139169342662
C -0.19957931494684775 -1.4049496521543465 -0.9401445735752482
C -0.9978478752930543 -0.6802862546559139 -1.9108535333459709
C -2.1418943492080276 0.06400566766240824 -1.300551410782184
C -2.4249303691765167 -0.1285273456512641 -0.04321407292771507
C -3.5303562650932867 0.58092834186311 0.5749996567916159
C -3.835146850116 0.39625179278418143 1.8624321397264691
H 3.4734084620541044 0.38426080864111584 1.8680977707518562
H 5.095993783942268 1.23390471594231 1.6343634426970075
H 2.9159813168900253 0.3433322819127971 -1.796997005885452
H 3.309556699798915 -1.1754326986885253 -0.904466296229087
H 1.6003871316798313 0.5396864546658596 0.8999995873970836
H -0.26882815905077106 -2.3954653084147086 -0.5871706921960693
H -0.44816108858367704 -0.07370348083829333 -2.633212270166834
H -2.698319252619051 0.7353040780152651 -1.9121754813474756
H -1.8529085489684902 -0.815238692707534 0.5755334077832628
H -4.120251042914115 1.2759657426561215 -0.02453565617566674
H -4.665795036262145 0.9465623568265874 2.2764326792260094
H -3.2353528978128288 -0.2977145532557331 2.434600806103285
