9

C -1.6530720768018021 0.626272942869834 -0.10845570003698207
C -0.6244548495124616 0.2601725984952467 -0.8542626569570912
C 0.4397890931186061 -0.6512883428857479 -0.3142865465340179
C 1.516580677764835 -1.0228375602652775 -1.1105291963910802
C 1.7651697326952023 -0.010410290802360759 -0.12725429916696193
H -2.3940578680455724 1.2799666255815114 -0.5314126691262115
H -1.7784537954317685 0.29453351998443394 0.9091633699188938
H 0.08982406537255128 -1.3253646825949712 0.5173457085439693
H 2.638675020840487 0.5489551896173349 0.1415960368827922
