41

C 4.339383477299893 -0.8891380330891998 -1.5183889323613171
C 3.270583415716745 -1.2471062405454665 -0.8138972858469802
C 3.2108943541593757 -1.289704368473143 0.6069390106523705
C 4.577122723057902 -1.5752324288082609 1.2456649029910982
C 2.705927724376583 -0.024277242461721405 1.340598221259616
C 2.818726477590999 -0.5031813381513998 2.762917998905073
C 1.650212079506998 -0.6299272454424494 3.2539374845659195
C 0.6701087218581742 -0.2561759129911946 2.272612173420189
C 1.266177005695993 0.1220389285138994 1.120469803721681
C 0.5576149348092626 0.5877250654676586 -0.06472335313033967
C 1.146071118002493 0.9926270686621869 -1.1346264629997966
C -0.9226399534078881 0.588492369918098 -0.03150622817710964
C -1.5703140848867874 1.0650324137313043 -1.3119575082051953
C -3.016424378007406 0.9972773173909769 -1.0728766881883187
C -3.683879590769684 0.2243066834851995 -1.8583189911735496
C -4.362008640077706 -0.6205078595548297 -2.6213842282846027
C -3.787363258679414 1.7011784949149105 -0.05033788678069653
C -5.221587965146107 1.423033341628242 -0.13298575606160093
C -5.722450201436723 0.26830549480332433 0.31225053555906507
H 5.267855168868027 -0.5957899683957489 -1.0521847859838713
H 4.3175393765589005 -0.8782738665182817 -2.620400780055498
H 2.5341714128877566 -2.0986811697369965 1.013606851404212
H 5.195399791094002 -2.0046418167484563 0.4218042223488313
H 5.042018047049694 -0.6054043814893437 1.5007626200363369
H 4.48331319712447 -2.2367084837869102 2.104418233329653
H 3.3198725563832814 0.8445394273796334 1.13013330631322
H 3.777908612705043 -0.6842330008593275 3.2151491596713986
H 1.3742682415184628 -0.9679237140526111 4.263862309833842
H -0.4142997173225193 -0.24984788678473618 2.3629174446472647
H 2.1906210737951093 1.0548340038084005 -1.319416193178466
H 0.5362650846341955 1.3302474071175163 -1.9971740501205102
H -1.2575350497149542 1.2645663298191385 0.772281409843389
H -1.251153482459976 -0.461779495901423 0.11923688844998821
H -1.2933465501066184 2.126014169593455 -1.531605447586027
H -1.2805936881729092 0.46724895299295216 -2.17755358849536
H -4.7275936278704105 -0.16276594697541352 -3.49497054617478
H -4.433963285195968 -1.6044146648731312 -2.250043045469433
H -3.5279312482203866 2.7573000461075345 0.07510703594393146
H -5.862534908447681 2.17191927223334 -0.5613576224167092
H -5.128426372295173 -0.5077564993203001 0.7460185381284862
H -6.788008593323447 0.10678477621538163 0.23060137447711693
