17

C -3.720075504962186 0.9104939857987343 0.1202020655277673
C -2.9628211672333005 -0.13482200877073286 0.42291535427456034
C -1.496352915368559 -0.07067724306778424 0.29148265293019926
C -1.0681481821162406 -1.0331617814309682 -0.7351355145614552
C 0.13682023975042923 -1.5364315982344898 -0.713511756350052
C 1.06689386563875 -1.1418830307531285 0.33663343596759626
C 2.0404027672765017 -0.3561779822313853 0.010867733886728802
C 3.1689119719802252 0.1561902562593906 -0.31872746334658175
C 4.341191221248356 0.7650350467583285 -0.3943754445423673
H -3.3160925885207924 1.8495962392043055 -0.23263868415873554
H -4.793737150388375 0.8357013154488359 0.22598122730704187
H -1.1279537883656927 0.9627268875853091 0.08858632450768789
H -1.0729349718007744 -0.38565968015899516 1.287259625539768
H -1.7516471151695798 -1.3209556641150793 -1.5040430968717853
H 0.9071331608534983 -1.5204525344650215 1.344430775525811
H 4.49535392228196 1.7133437246919232 0.07297767700362136
H 5.153056234895603 0.3071340674808003 -0.930288079216959
