16

C -3.047228848788385 0.5629336102140496 0.1502241966341844
C -2.173121279215461 -0.3968761674237334 0.029983663750443573
C -0.7436136468233865 -0.23872131630568133 -0.07082555360073434
C -0.03091879120681 -1.3553495896083079 -0.1871730843619139
C 1.4187644573805813 -1.4845583175671864 -0.30542358523615937
C 2.307385070940518 -0.5051554845925114 -0.2097159874557308
C 2.031761969136927 0.9229094682028506 0.03575695332592151
C 0.9253655339638389 1.5073907966643434 0.3923462280872776
C -0.2530739258396712 1.1389775269358566 -0.03282364624670547
H -2.8573526490413057 1.613202389440692 0.19394245049529854
H -4.100772416677996 0.2415917902622282 0.2131313127399853
H -0.5737074101749691 -2.300966247870889 -0.19784858062220967
H 1.8154040424430289 -2.4764260833327443 -0.48976400212153787
H 3.354082695554792 -0.7501447923202901 -0.3191982250218319
H 2.8562153446837253 1.6168791110610674 -0.0920022971470251
H -0.9291901463358883 1.9043133062401671 -0.3879724266818122
