78

C -2.2956813491224293 0.6182663928331049 -2.9923890901118644
C -2.5844888233074323 -0.424464277090367 -2.2415261846959127
C -2.587223130961627 -0.41183328678307835 -0.7649112143779812
C -1.5380804017655836 -1.4474708523850595 -0.31984426578218345
C -1.4511219887793 -1.5225812771872869 1.1493210934293299
C -0.12132810592853259 -1.4665861090498382 1.755750108707268
C 0.9468800724729195 -1.2612720580512773 1.0288532434122357
C 2.2353765435646338 -1.2299159572106249 1.7665408457637244
C 2.0764864483642924 -0.37824595785961 2.9153605461737038
C 0.9812707454620515 -0.550753660131896 3.682608517218142
C 0.7342208493334573 0.2503418547259497 4.8493307546606434
C -0.2822846083313594 0.15943464071415056 5.645422845334982
C 0.036705782680450987 -1.6145369784029024 3.267071567130162
C 3.3696925076108313 -1.2217867207560689 0.9188254918896497
C 3.3408185141655604 -1.0362746836790142 -0.3900842258835257
C 4.402323311952518 -0.9917821707478539 -1.4949660693232998
C 4.6076425734181585 0.42835943180399183 -1.8204848307954908
C 5.643888775344916 1.0335545915406268 -1.317768893434764
C 6.770572724739486 1.5593995130179095 -0.9448173498961083
C 7.8503468788558575 2.0174872526063483 -0.33499662597679497
C 8.176083766461165 3.456984801822714 -0.5487815417831036
C 8.646988412833828 1.1576308035572378 0.48108261754400944
C 8.198002786298671 0.6696265416475531 1.7387892183092801
C 9.826141274665051 0.7956676546690185 0.07835472817337535
C 10.92429470744115 0.3684157605244829 -0.45043578538847273
C 3.6305962190087504 -1.7268823377490292 -2.5545515148859153
C 2.311971743924687 -1.6026575765445312 -2.362346407263243
C 2.1112480123734514 -0.7800717150580914 -1.171799125367862
C 0.9172788627283724 -1.0813730730787843 -0.4313305136628924
C -0.28061877708886623 -1.1466897423157199 -1.002468678397184
C -3.9503349195442157 -0.8328191475585446 -0.2710934926086597
C -4.349439488193752 -2.184625391012428 -0.7009073575405096
C -4.987409908765474 -2.3898399517088094 -1.8543062010248397
C -5.281627153172929 -1.1781685369645725 -2.6973141022396687
C -6.47085964777338 -1.4304174581792901 -3.595737742796619
C -5.623705998663894 -0.03270358052318545 -1.80226698522529
C -5.017113936975618 0.1576135521028601 -0.6560639434813191
C -5.299274920858448 1.2573423555576584 0.2714862823591025
C -6.161837739257076 2.2177295167926956 0.15481933187165964
C -7.095897305768832 2.5123523431765493 -0.8878433801991463
C -8.380271119122888 2.2513713656095464 -0.7979745692998399
C -9.548368268124563 1.7900364068525516 -0.5673412620731882
C -10.729972630658343 1.2300145936424487 -0.6265650655360365
H -2.3137940140436335 0.5356820116933084 -4.060937069163092
H -2.0403070499634093 1.5570741886920603 -2.5403303197453266
H -2.3106104989486664 0.5922746928087019 -0.44026044833986505
H -1.8918733243197379 -2.432556281858094 -0.7646056374825856
H -2.1391159026060875 -2.2371709507312167 1.614242806695575
H 2.769433387652938 0.3773878036739477 3.195065294892482
H 1.4851489479518067 1.0165063886649035 5.087241151500576
H -0.4117788250629748 0.7926472721919757 6.508990458948025
H -1.0575622463330272 -0.5670616982387575 5.47717696807398
H -0.9406154001885885 -1.5644872833002381 3.7365186836959197
H 4.3819635715995195 -1.3784412352324815 1.3359313173888356
H 3.942092336185987 0.9694705639358463 -2.4474167426740294
H 9.027955746487486 3.5831398978789344 -1.2598112291063663
H 8.484847942197757 3.9482851954441514 0.40974203014210514
H 7.3280505851717415 4.010364337352115 -0.957140628834398
H 8.94207947923253 0.15018400959537473 2.375417410100358
H 7.308400295933256 -0.005030972700686474 1.7250383354779204
H 7.857929047419503 1.5444960400794605 2.370995372138278
H 10.965105723590426 -0.49289813215511 -1.0372940211262307
H 11.785137227763016 0.9264251577555398 -0.2662262756003128
H 4.061508987826965 -2.2826029293607775 -3.364863486091522
H 1.5346567764492607 -2.060165754575598 -3.015943575192883
H -0.33850768514736074 -0.9585929638087303 -2.0856961271597347
H -3.93310673213107 -0.8493716724822215 0.8673453936962956
H -4.138841998889526 -3.0751704529590036 -0.09176323887331074
H -5.274677586573162 -3.3802524516303607 -2.1598799430838023
H -7.428409551586288 -1.4083500086097318 -3.036539659737655
H -6.400720983829461 -2.4330749976474775 -4.058068417355863
H -6.485588787963093 -0.6539101151251637 -4.377034639172792
H -6.395241959124423 0.6535149832607019 -2.120281727870255
H -4.655655200911551 1.2165571007854492 1.1894117026643307
H -6.1822137914293 2.9372373086284416 1.008587559445031
H -6.749682992071742 2.977094361817212 -1.8006315953144678
H -11.59371259254407 1.8203932501486833 -0.8985043129224305
H -10.894184223332944 0.18252646284010413 -0.4129946062445554
