10

C 1.8545974793334736 -0.1835009229396844 0.6290765250001403
C 1.0700185680070675 -1.1309713456369135 0.14069714315769713
C -0.054099720801393913 -0.8055991536228129 -0.6834128891001469
C -0.9571855667734297 -0.012490343993695882 -0.15231955816865353
C -1.7938085373667425 0.784543245199705 0.44482106412882105
H 1.6655377704993877 0.8571231309882238 0.4176148501521575
H 2.6835252532104614 -0.5198706097361249 1.2439277396960609
H -0.27727751037757625 -1.10751144261169 -1.6694615043027212
H -2.565045124155702 0.29997687205195583 1.000811050080898
H -1.6262626115755774 1.8183005703010562 0.32116093671898044
