17

C 4.2534021735594 0.3826553490609417 0.10313383119392998
C 3.069336105440267 0.006363413899408825 0.5474443252494
C 1.8802257237814475 0.7831415530506589 0.24522234160001735
C 0.930833927797968 0.14988935678235013 -0.4262382616901068
C -0.18699953579102746 -0.5107060283063093 -0.6742766308043573
C -0.9254271772320313 -1.2265539080618957 0.4181245330172533
C -2.3318371427790376 -1.2784137556310926 0.0397375391375679
C -2.9198702175173685 -0.119125297083092 -0.1675241015191908
C -3.4269301059841415 1.077194349391233 -0.3608878182467285
H 5.102150078523844 -0.23463519500863275 0.3596021433628803
H 4.330389613025984 1.2784371466006055 -0.4905249555226691
H 1.7072152285492777 1.8074290153372943 0.5172667356082432
H -0.4869376900376721 -2.2455866547604315 0.4530017837960703
H -0.8297106198252433 -0.7185309061975292 1.388974933824165
H -2.967661656875771 -2.1109771286084844 -0.09769815059374394
H -3.3479383458008836 1.4409215292277033 -1.3475904946143444
H -3.8502403588347676 1.5184971603079258 0.5123519058244811
