39

C -4.683160158208927 -1.9760905427279505 2.2760067558991026
C -4.610254102291396 -0.641070346388601 2.221364947941776
C -4.536048591740282 0.06740995244244799 0.9164174559965081
C -3.394913842362143 -0.4909973420955267 0.0929819328623884
C -2.1509271148200644 -0.2745143119713886 0.8763231559619263
C -0.9064844852196039 -0.047604139086328004 0.48573419263798195
C 0.2479662153603192 0.15359544328083322 1.34009079144083
C 1.3266154987100975 0.3589094043716079 0.6136219863611775
C 2.6964424859247655 0.6034951878864859 1.1438529751160829
C 3.72843550888239 0.803646614268933 0.37647419126115966
C 5.087064088363511 1.0455942293104228 0.9052422182474122
C 6.080474988522119 0.015517500821961702 0.45083421261336015
C 1.0069803992142605 0.3141237141576079 -0.8136934695138202
C 1.8035966737247704 -0.7286276207552025 -1.5723781216398807
C -0.44358274275788334 0.05031742313084107 -0.8813654397819843
C -1.1191407625068277 -0.07756645533221779 -2.0401353519985626
C -2.5447042968575193 -0.359459418096676 -2.258109348844089
C -3.371165661950875 0.2869407348104849 -1.2066326349212289
H -4.736682062262072 -2.4943391392589915 3.203294592472844
H -4.687283017838074 -2.527243316802279 1.3649781340368505
H -4.298238990826446 1.1339579768996881 1.153395984990579
H -5.497736810350779 0.04205463568446802 0.3706134536382189
H -3.60176195282211 -1.5580087311837236 -0.09552265738456171
H 0.2401888295645218 0.1397396522930584 2.4339409083638803
H 2.8477003906886313 0.6166856571167838 2.2178103097249213
H 3.6069763812593707 0.8005048958410275 -0.6902962872557207
H 5.414264758308893 2.0425710352276196 0.5024533637850724
H 5.09256963871754 1.1338279272438685 2.0160820652198304
H 5.560368902293215 -0.8537608806915854 -0.005397864302972762
H 6.698945617799582 -0.292217402210333 1.3257949637593447
H 6.754691638590925 0.42403667462590267 -0.3203358924456351
H 1.0488680139302387 -1.398447201596615 -2.0614318956397737
H 2.2987389360193577 -0.20025072610446995 -2.4112969971456
H 2.4907624927110845 -1.2893004760077438 -0.9303775252518254
H -0.4704939164409059 0.05592901548234392 -2.9062465407029854
H -2.6435479558997534 -1.4833001627336608 -2.181238428704896
H -2.848832991552278 -0.08938998248418034 -3.29132476747507
H -3.0608341919306237 1.325566856561731 -1.0517421462584646
H -4.425857809947004 0.31929293592466484 -1.5697832230636448
