20

C 2.605317549067878 0.7143322491244699 -0.23927752302393576
C 1.4700084848325734 0.7605092375860822 0.4446830468359591
C 0.6539973461524198 -0.4328944832791327 0.6853553304717894
C 0.9890169962645712 -1.5733763947133643 -0.26154859909736183
C -0.8065007722188138 -0.1062847039026799 0.47353081202110653
C -1.2254779139174936 0.9749749878812418 1.4194837044849615
C -1.1411994146308309 0.1573738091511296 -0.9285153624264186
C -2.4125402874976882 0.21402103981857748 -1.2848434601807217
H 3.2342479724355258 1.5721123262331709 -0.43746145599797903
H 2.929431063190145 -0.24243457625441386 -0.6275773770665888
H 0.8210611495747557 -0.8214477861295683 1.7077522445731361
H 1.9919747827217442 -1.968034301739741 -0.03981484882259166
H 0.26356964061130256 -2.3999401661932644 -0.008147117254495097
H 0.812535632605853 -1.327211186114646 -1.3111916857520503
H -2.2365730856741655 1.2967709736684667 1.1692862188486608
H -0.49327455548191235 1.8280492220265891 1.3700866795325697
H -1.1294799409072966 0.56404938805111 2.4559893702029787
H -0.3993746086831502 0.3152946662477697 -1.7250823259834454
H -3.188743295265071 0.06722025566600331 -0.5484626589357193
H -2.737996743180371 0.4069154428721616 -2.314244992429854
