39

C 5.097078730430613 0.4337014449618386 1.3754547766002991
C 3.9103533596382496 -0.12661927565778316 1.5012774191087324
C 3.109591858171701 -0.3296961262672579 0.2413365392758875
C 2.4156654085826257 -1.6179470566603613 0.38255081925737183
C 2.9662261068916065 -2.7280604974923177 -0.08812930123614857
C 1.0699674515943818 -1.6598616769479728 1.069684966196479
C 0.24900966421342624 -0.6433760596729086 0.3142338508146369
C -0.9496799975658138 -0.9635004433527797 -0.13135429048842506
C -1.7861798929714614 0.006874464872484081 -0.8781342857154533
C -3.1879135617858703 -0.424366900680459 -0.8854713300293902
C -3.590067345513583 -1.3159582590188574 -0.02892819370829704
C -4.062599487584077 -1.932294450572865 1.0512648596329524
C -4.476080373562844 -1.0518253894278855 2.203414132978704
C -4.125086375384836 0.1330696589321514 -1.8232327473565544
C -3.72954726729643 1.0489766243813576 -2.709078720308581
C 0.8522460859616326 0.664754118167634 0.11878498575031841
C -0.029549284903830044 1.8440393157085022 -0.03804050313754991
C 2.1909600357761043 0.8006594573621931 0.08609704858086902
C 2.6961432629976803 2.1817489607237035 -0.11949761586676999
H 5.5197761817853195 0.7512406788979198 0.4241123903413509
H 5.729522767497899 0.6101998379061339 2.2468740230720963
H 3.8238242532778117 -0.41703906334364343 -0.6296147385864966
H 3.9273206907596783 -2.6698872548532715 -0.5740416204806045
H 2.446271543337048 -3.650246168328412 0.024930763767925104
H 1.1531106264114384 -1.2956564267443602 2.112021892192002
H -1.3108279437144947 -1.983497860886109 0.07228770266814533
H -1.4324142545262457 -0.02449210599351481 -1.9496241383377446
H -5.128461089494971 -1.6881543438404134 2.838538377996523
H -3.6064425915078213 -0.6523952994593508 2.73323715052752
H -5.073113744572417 -0.1870278702089687 1.8302860378557648
H -5.171166506642303 -0.1556775172493758 -1.855761653068706
H -2.69692810189665 1.3813409715068798 -2.72965364911326
H -4.3899937562319655 1.4909550795137256 -3.4246508068691965
H 0.4873366088714104 2.7857906386407523 0.27042380502053714
H -0.9535865919625637 1.78933316334622 0.5561781976425563
H -0.296610947323735 1.921868941465673 -1.10947138909906
H 3.774067331286346 2.218375271647049 -0.3230476495317668
H 2.455927416169876 2.780492974358125 0.8048091178354152
H 2.1218497307872064 2.6741584442664337 -0.9447074548330188
