29

C 6.088224998592525 -0.48422247121289436 -0.7504490542852917
C 4.874958378884184 -0.5995408533418876 -1.2750895844647523
C 3.682336046106276 -0.3248344856181368 -0.45209918841432195
C 2.4396098828875874 -0.9946395866701729 -1.0276164789537583
C 1.2697602795792176 -0.6968092970715477 -0.17785620693252016
C 0.48022553419735126 0.33516175157962386 -0.31475473453475433
C 0.6783321888355568 1.354326876833986 -1.3730589326140568
C -0.6364898440742198 0.4975227364719463 0.6005948586555232
C -0.8488577494347895 -0.3987686837888509 1.5672573631820006
C -1.9532494480829552 -0.2111203903068831 2.4493403450281575
C -3.0862899793606218 0.1645619737829624 1.8748778325121607
C -4.178867540058085 0.4370552815537677 1.2145668032848587
C -4.954456919508091 -0.6724821990726944 0.7602367887422861
C -6.066417138695224 -0.446245220330636 0.0887101556182366
H 6.204677720146569 -0.18744054213006325 0.2855260985319406
H 6.990084330857631 -0.6720987721425108 -1.3043445121586439
H 3.8422767555988995 -0.7282968962708992 0.5649576835199079
H 3.5077329107409088 0.7594914278548768 -0.3653146351655188
H 2.2410589397202956 -0.6731931648816679 -2.057672736191366
H 2.640184994046536 -2.0895490604174154 -1.070540202652617
H -0.21325739384214593 2.006651096231902 -1.4639807400674707
H 1.5552988245949424 1.9952990557684036 -1.0848578863771097
H 0.8785158250244484 0.8203874614902729 -2.3261865459513342
H -1.302235827001211 1.357543683788401 0.49386923802867205
H -2.03907778685002 -0.3191226853468159 3.493407731890168
H -4.358833412889613 1.4673714498515544 1.0933118750699107
H -4.6780089706111765 -1.7040478892869941 0.9381352667239965
H -6.3895638438294675 0.5673141616117955 -0.11695858667386018
H -6.667671755575348 -1.2582416648904549 -0.26401201534839863
