30

C 7.110855417694806 -0.07456919234680996 -1.745657748955695
C 6.167908637686218 -0.23541194515122332 -0.8587484076902508
C 5.028253314645769 0.6062926179089574 -0.6907367884325447
C 4.022899948264888 0.08142889942745422 -0.013820507633387717
C 3.035730160350357 -0.5670192906586452 0.575141552190867
C 2.1486006743082617 -1.3129371322262615 -0.3062671796558407
C 1.2094109930522 -0.36798418284226747 -0.9610639695178333
C 0.06617886244088421 -0.023442491862407936 -0.39834566294499285
C -0.352968895470056 -0.5569747791645598 0.9215831309231767
C -0.8251183007695404 0.9072192800170674 -1.0769597672875548
C -2.0301033865791513 1.1321277835463357 -0.6593564668813943
C -3.2811670472425942 1.0771654530736963 -0.30450831862939903
C -4.508058557189031 1.0760571905343381 0.12850711810800453
C -5.282350791589644 -0.12098881893348913 0.12333091821022192
C -5.9559331635827695 -0.39273651031948975 1.2191725685391859
C -6.593103547558549 -0.5820759153153651 2.3522588712717893
H 7.058423498105863 0.7583665336372315 -2.430821850673238
H 7.955788914465521 -0.738647180517086 -1.835276994797861
H 4.835628032351183 1.5902376859884382 -1.014902124037016
H 3.0333294012460317 -0.4491576452834159 1.6221824900374835
H 1.672161463482765 -2.1935887305281665 0.11913862519245216
H 1.502867573642622 0.0272078534039062 -1.921700926209283
H -0.11734883334966989 0.18574697319836186 1.7339674447229025
H -1.4735003630258663 -0.6325013508671575 0.9399653066426162
H 0.026344849507100643 -1.5541564704694 1.1404824984759168
H -0.5110539173904394 1.4574311432672789 -1.9724402876679723
H -4.9262626120045026 1.9994984030457459 0.49111895310633036
H -5.404483327661918 -0.844007051826385 -0.6412574665371334
H -6.051369535725773 -1.135209319075439 3.075136233954771
H -7.561559462105092 -0.15545265193094257 2.3898787561757184
