19

C -3.1684400483607775 1.261072524376179 -0.42220533858904086
C -2.967159813590335 -0.03350006453368174 -0.2497445653516065
C -1.7446198465418827 -0.5425261538743027 0.42072752735616825
C -0.7098240349783179 -1.0228343657519212 -0.6077427390195851
C 0.4474592765311787 -1.5010392521559075 0.13480922029251122
C 1.2899754477356586 -0.574400250835861 0.5532757924866436
C 2.112720933710511 0.4102313888016374 0.8148477519078271
C 3.103962341150534 0.7294916206713208 -0.19839211947814217
H -2.4201164568821305 1.9525721457134255 -0.06322974497673708
H -4.043298798417563 1.6740578807480693 -0.9045003351965405
H -1.9674990164522579 -1.4279065005414908 1.0509679776540404
H -1.3034031295002448 0.2303291640426098 1.0792808428766807
H -0.48521954609999307 -0.20240519072486055 -1.3214950514970012
H -1.1237374304062357 -1.851854642729877 -1.2097833441641692
H 0.7461068694026022 -2.4737431796774407 0.4063751246594644
H 1.954906084975554 0.8665810178584664 1.7494459284165467
H 2.793294257550412 1.5102965028305975 -0.9196638579057616
H 3.4712151025649667 -0.14802384219111597 -0.7622770264410581
H 4.01367780760819 1.1436011979742027 0.32570521828109
