18

C 2.6965153665185766 0.6781383000754962 0.5138292095950397
C 1.8313462349189376 0.4621257843395111 -0.4563363386766176
C 0.9213203125802256 -0.6973643639489631 -0.35619552793617476
C -0.10031301968300535 -0.425644861039461 0.7180083045064753
C -1.1801021196293786 0.13953118510946597 0.20874044849075296
C -2.4242767007731776 0.5650628613012172 0.9477160167563506
C -0.9726240548077474 0.31028082754354647 -1.242809768590709
C 0.009309411783908216 -0.7783083405201616 -1.588411433768352
H 2.7581084549720125 0.036585431390064115 1.3725439987048313
H 3.357075982632846 1.523563340321315 0.43661535084955894
H 1.4149326408190337 -1.6602675088207315 -0.2202830088521746
H 0.08096034140889266 -0.6818327286899212 1.7578937319227135
H -2.0942785776818376 1.0802627442100838 1.8634368735653863
H -2.9755369529619307 1.3034553922892924 0.3394470934921959
H -3.0082185909395767 -0.34414257951122446 1.1651885425066149
H -0.4253598509566815 1.287035625738117 -1.3825485470880297
H 0.6020074249790596 -0.5614434515790497 -2.495070794810543
H -0.49086630318003516 -1.7436866238603848 -1.5817641506674025
