29

C -1.865047759572403 2.852321247890287 0.42181408088102845
C -2.396991176462251 2.855925200799807 -0.7724986844485988
C -2.1956017800233756 1.8019746860166097 -1.7024972469021007
C -2.0555859164749206 0.5979791449088697 -1.1775811603609132
C -1.9083965036777222 -0.5369759717220719 -0.5381732734119894
C -3.142032298090971 -1.2586084183773336 -0.3068651460497505
C -0.5457944443847894 -0.872849310921034 -0.17170133580162691
C -0.21388904571358078 -2.186207026098062 -0.84190552968875
C -0.23312287109122348 -3.325365530710315 -0.21551944846087998
C 0.45691801799979864 0.0780981324907635 -0.6262361918697605
C 1.695778464474109 -0.19341348628746993 -0.2891652930103444
C 2.8936187745128907 -0.5014939648720509 0.1778669383763119
C 3.2153023973788586 0.04265954684768026 1.4910591198015142
C 3.7061135888163705 1.4797825936060371 1.2835605213612895
H -1.2425272649830512 2.0280110516490706 0.742640190599016
H -2.0244850087726007 3.6557672757403137 1.1174126343352113
H -2.1326150719934827 1.7766405322036818 -2.75019693119748
H -3.9460583160629787 -0.6886988760001951 0.1910053759199816
H -2.931639376740603 -2.132045915478829 0.37638006440243116
H -3.5516623516090826 -1.7260726594350413 -1.247470094017865
H -0.4423671415301794 -1.0143268569558277 0.9241374353255366
H -0.4932644665947925 -3.364842610638595 0.8265640902013105
H 0.010960894991397864 -4.232257616624921 -0.7369746527983195
H 0.3662061462711496 0.9651871768385881 -1.1881670625628473
H 3.453188640115941 -1.1073425088565654 -0.47610228848235914
H 4.05258646198578 -0.504610255239405 1.9582416903978643
H 3.230536623669709 1.8870390894308358 0.3442646619406026
H 3.4409067563959113 2.134717310557423 2.1163333816768395
H 4.798964027165384 1.48900801923802 1.0697741538449743
