17

C 3.5044775537921335 -1.3006941317236742 0.6900063049304991
C 2.2489414795647393 -1.3770398223583014 0.2766072812170745
C 1.475629264925915 -0.17681611788592524 0.0008182578778139077
C 0.23813856506442735 -0.2867947314690504 -0.4060589391490872
C -0.6702627323505106 0.8130401137956481 -0.7247602405167299
C -1.6875213124090576 1.0517980745942161 0.3751970429027745
C -2.524680132183086 -0.15479940057377986 0.6081169821406933
C -2.562251829688537 -1.1436051445509188 -0.26616534605047054
H 3.9705960522258077 -0.34400844548044357 0.8277263073297008
H 4.01015282976448 -2.2385977839088302 0.8729436447644335
H 1.8954999342908228 0.8075925089394946 0.12276110980386765
H -0.04993791623066165 1.7459734297002965 -0.7952270667330004
H -1.178714105496566 0.7289600134396367 -1.7052270989219334
H -2.3322594250006916 1.9132924872203432 0.07795010950433649
H -1.2034175533218223 1.341026006243614 1.3254873443993656
H -1.9727863578519822 -1.0691469368128834 -1.1639055195056303
H -3.1616043150944373 -2.025271070786778 -0.1162701739937124
