30

C -3.219810052138128 0.9218209273604984 -1.8056410635959674
C -2.8559691373726754 -0.3686187633782153 -1.760126788439023
C -3.4205911576125776 -1.3103862932190509 -0.7450096257876515
C -3.9684245457493494 -0.5498429894388019 0.44614084264391757
C -2.3947717863014857 -2.227185195246815 -0.2735115570873231
C -1.5975344996484955 -1.7430692668090684 0.6554851508851833
C -0.7869337557923252 -1.1643848889099129 1.5228881438315462
C 0.32676351355721356 -0.47915372579397464 0.9516453362012004
C 0.11762894522012936 0.5608771063615465 0.17409301768141233
C 1.2119182512058657 1.2857947799488154 -0.4262806035124687
C 2.452542035450853 0.8902655193181964 -0.18522969580135693
C 3.6108193874999968 1.5663247451593882 -0.7516158586366446
C 4.8313924345207 1.1512804422631833 -0.49485327568451015
C 5.01150582679584 -0.02416308885088132 0.38660996826032645
H -3.94552668030969 1.2658822377051016 -1.0741521072563909
H -2.7673932141372646 1.5259671502255565 -2.563524828612831
H -4.282739618166422 -1.8781431917459441 -1.1861338576576117
H -4.113073071864106 -1.2684012799266629 1.2762613307646213
H -3.214636296678102 0.21401042383401178 0.7782764658580247
H -4.916057930430266 -0.023488372967199692 0.21711960361890367
H -2.1716259970950573 -3.219343649159288 -0.5453266571650226
H -1.0872184288361566 -1.2949001986508486 2.523465317447983
H -0.894371581196437 0.9018265129746024 -0.03637538710815983
H 1.0755200706347856 2.1323549487050553 -1.0608002535670067
H 2.6428265290453523 0.028021420931695507 0.4586388113694938
H 3.513991397366846 2.4333769388954867 -1.4035191538437466
H 5.717965226777171 1.6231728595508073 -0.8938634669299466
H 4.415611799460506 -0.9017496380103951 0.0660108880381215
H 6.071365652763955 -0.33817037529024846 0.45892706039010484
H 4.63682668302958 0.290024904163577 1.4008888862548836
