19

C 3.6586373331701374 0.9516574274136488 0.7090145836970027
C 3.396855248219097 -0.2654038634590222 0.2456936655108176
C 2.4536004517525085 -0.4237283179147262 -0.9208640650564951
C 1.0651358484894757 -0.24892895070809906 -0.3588990132084967
C 0.013692316545840742 -0.37897370831953126 -1.4004517753469692
C -1.2162025361664075 -0.617387643324515 -0.9720455064050088
C -2.3030667676328545 -0.8246586078337166 -0.2907854063550906
C -3.0579642567057337 0.33247948283134005 0.1491800937290825
C -4.174224036801415 0.18262516213448815 0.8472833701360969
H 3.248158353715584 1.8602647238404841 0.31765993248921637
H 4.342568628619422 1.0099426215481797 1.5481283812316602
H 2.698591053882646 0.34283146374145607 -1.6695427328197214
H 2.6174719566116815 -1.4212479945377707 -1.347141903180238
H 0.9555057893795705 0.7377107513702177 0.12380658319525428
H 0.9166038131234915 -1.0595752937324296 0.40637892464250863
H -2.643792889159438 -1.8092192820267268 -0.04899785955210429
H -2.7134972284448424 1.3444864151086784 -0.09094277655663235
H -4.5560881530402 -0.7809058751401082 1.1093988776430472
H -4.701984925558693 1.0680314890082674 1.1528945781246085
