21

C -0.9523063291770554 3.261397441639604 0.19938800630898765
C -0.16100545892255172 2.787563269979803 1.057555467741388
C -0.1181635343652609 1.3007135520608197 1.3591837149129382
C -1.0388661304486397 0.920526987123405 2.108471103641068
C -2.304840288055433 0.8061327847446879 2.5457428772646735
C -2.7466351281226076 -0.5690540648571502 2.636423719630052
C -3.4704830767278514 -1.331017551405373 1.9208825420000157
C 0.8517832293683726 0.627192253759957 0.6717545045162346
C 1.6599120205455753 0.07894991492383913 0.08448580656872362
C 2.6973232947504595 -0.5944704261732535 -0.6547126863481443
C 3.2487346481881643 -1.4339511146033472 -1.3770451211635688
C 3.656330761004285 -1.529436722393962 -2.759038901569314
C 3.1773565411391704 -1.7287922221832919 -4.029648314041637
H -0.7557296437991309 4.432596899376339 0.1876642119191972
H -1.6617767141143152 3.0584428724372623 -0.5431133673823715
H -2.213897133832291 -1.0098325700922268 3.5371629494664596
H -3.6161764612547596 -2.4059824895884545 2.376583829892395
H -3.829969556600196 -1.1947482199833215 0.9075198107828802
H 1.6288082346642283 -1.7974233974804288 -0.58603330716227
H 2.8431819148642483 -2.7349157030392073 -4.324524066269295
H 3.106418810011357 -0.9438914937823132 -4.727253305874
