20

C -4.036380972797061 0.06547014384471318 0.3034552320599893
C -2.8204364533940023 0.35495648601252383 -0.11789220726098579
C -1.7095298472670808 -0.6289143261092965 0.011850634215303146
C -0.43992623542617293 0.07534157874758353 -0.38315456311615176
C 0.7698151881281109 -0.8226068217223493 -0.29340339076600375
C 1.812079623036653 0.06924170959975823 0.16811870017098385
C 3.05199984162789 -0.2061130426292456 -0.08984203306033324
C 4.342129420537783 -0.3653091569855304 0.04475430915395881
C 1.163666558451843 1.1485143117111456 0.8698049525587693
C -0.13221952464006578 1.1660581075268803 0.564487806675732
H -4.21917516381156 -0.8999663643431707 0.7468977180851587
H -4.85236188740771 0.7584223449563764 0.22041215770898545
H -1.9173803156250007 -1.4881208311399778 -0.6295074620853147
H -1.6337133658196084 -0.9085326548810868 1.0894820092733846
H -0.5558890391468772 0.4590488142001038 -1.4265734142925157
H 0.5955785604513001 -1.7189736090931715 0.3023102501148632
H 4.871191373477417 0.059454000397157605 -0.73947714465502
H 4.810719921652418 -0.86250715434275 0.8495863981004521
H 1.6955550261152865 1.825799189140603 1.5408360656405418
H -0.7957227081435577 1.9187372751100598 1.0026027508760116
