25

C -1.3554185495873257 1.5873238143213266 -2.7271794238596057
C -1.7735487253689386 1.0686865158051444 -1.5883692884613663
C -0.9100728398199245 0.15439815299162465 -0.8408044330854144
C -1.6874765288580083 -1.0652767808204098 -0.3256829252466272
C -0.6624897940920185 -2.0324693243524687 0.19111120231190667
C 0.4404613188395165 -1.5591273703877524 0.758487966151646
C 1.6079711033126447 -2.245770067656332 1.3502135594615374
C 2.4357691545113087 -1.3174160065364093 1.7803891819138296
C 1.8981412092591778 0.008447837429757729 1.5154914631112446
C 0.7089539459610614 -0.13119172098766677 0.9064832168535508
C -0.31129618244538587 0.7967456088337538 0.391978232227466
C 0.20534743572387837 2.1793093380182245 0.12990421297850602
H -1.9321250842516606 2.267915260460368 -3.335668604305741
H -0.37217437795422015 1.3192208486260115 -3.082662723743323
H -0.12376102390084534 -0.25728001846624665 -1.518699712468188
H -2.324487141158914 -1.4941897121769918 -1.0955753547784055
H -2.298673970382198 -0.7585032335396354 0.5554003538076531
H -0.8355589153522207 -3.097555203442218 0.09471943054656515
H 1.7033102503514532 -3.3247581534754165 1.3908492859089807
H 3.387649467583288 -1.5477355974860825 2.2652966891520063
H 2.3324379563746804 0.9694338543413352 1.7447397962753068
H -1.1243569557604733 0.8613888560148872 1.1439137615834962
H -0.6533937744366108 2.880855992475266 0.17322512356590367
H 0.7571093036663308 2.265567582912862 -0.8324649282130236
H 0.8876827177825892 2.471979527144967 0.9549039183130082
