20

C 3.1248406929374855 -1.003161969983231 -0.9505523265484246
C 2.352621427489754 0.0119029274460102 -1.3715323066484828
C 1.775282675731018 0.9916258256921782 -0.39223720538494716
C 2.747732033848152 1.2870402193055472 0.6894848946520249
C 1.9147629493505602 0.6745310393229742 1.5164683998769999
C 0.9121683220274559 0.33949776010034116 0.549867365230318
C -0.23371858701605458 -0.2513473171512813 0.47089763582646954
C -1.4235838486615422 -0.7493617171973078 0.6129209363441415
C -2.525240793712179 0.08516163211932164 0.8600579884874552
C -3.642246382043532 -0.16371262088086813 0.23723036436282557
C -4.711455561741902 -0.5045867266461744 -0.4324447860898481
H 3.3252783416253515 -1.1036702001485803 0.1137078172128205
H 3.5461288815332237 -1.7118021126538605 -1.6283581454691276
H 1.4099191110180576 1.8941782685500494 -0.9217278475816436
H 3.7019207171185458 1.793614414837408 0.6938715838985833
H 2.009486800461423 0.5026354938151125 2.6007591292103274
H -1.5283784393171134 -1.7948813090176332 0.5371792123076515
H -2.5966191661520854 0.9386612369460795 1.5136798081021143
H -5.352871173616475 -1.1914565315929462 0.04856090947766725
H -4.806028000880604 -0.04486831286318608 -1.390444976170187
