21

C 3.325075056253869 0.9692834299174716 -0.84346052312827
C 2.4908548537670865 0.7118474585399781 0.14945166040350535
C 1.4545154701039391 -0.36447957632347366 0.06790326295187342
C 0.3940773189453185 0.024031441096831942 -0.8669849331100645
C -0.9058253260561598 0.030521749620452725 -0.5946101005033386
C -2.0906248036713024 0.375989639851229 -1.3717129060816258
C -3.194785105496339 0.22298328222801006 -0.6609397576913821
C -2.8889606840908413 -0.25521416574234845 0.7149099324493184
C -1.4069643349763616 -0.36772484767828695 0.7215664570118869
C -0.503802890950219 -0.7266497688657855 1.6036275279251644
C 0.9392474090270838 -0.7651397404553788 1.3961193387148427
H 3.244401430922586 0.37288324508838205 -1.7408612868928874
H 4.038538301501518 1.7526285636016063 -0.7136872527581607
H 1.9792837728657549 -1.2374304337570528 -0.4273612703907565
H 0.7092979110181669 0.33410874938332885 -1.8740404462104743
H -2.0208463875473175 0.7161684105673967 -2.4151433897875805
H -4.202515061057115 0.42390472881884295 -1.0411635854388626
H -3.1807216996275547 0.5576884689331532 1.4160664449151206
H -0.9085886007653532 -1.022833466452108 2.5895676761109208
H 1.3658891219741696 -1.7371292042217257 1.7527988994740336
H 1.362454247859134 -0.015437964150789997 2.137954252036403
