26

C 3.0255990530002084 1.3055723811944266 1.0192563655818148
C 1.9661770406330257 0.5880705792121901 1.3809321422752254
C 1.6436453389947148 -0.6100352442592037 0.5995124078100703
C 0.7230186036581205 -0.348647417901256 -0.5657096034699396
C 0.4991325770990596 -1.6551576359072484 -1.245694787705922
C -0.4550032777036877 -2.4711702346584885 -0.8374329666195962
C -1.309837282925016 -2.078720097033663 0.3098931332769036
C -1.5335010607272168 -0.589545651168068 0.25198585610071694
C -2.8269213083231692 -0.03716963549185003 0.6572804043572585
C -0.5654803582849071 0.22384712364844936 -0.16397935123464139
C -0.8574248592859804 1.668107760003674 -0.1931205058578311
C 0.03612313769209256 2.5515113611438918 -0.5882790684112125
H 3.333603211472522 2.2075607322673796 1.5451126530980002
H 3.660878861436354 1.0345193520760485 0.16421296992267995
H 2.5774580933387345 -1.0397768077968603 0.19626853691281804
H 1.1592602356864459 -1.3844016524964038 1.249604294022252
H 1.205306850772053 0.32132450189355394 -1.3077961799952322
H 1.1123216818963138 -1.976547969013852 -2.0965836707874375
H -0.6110917755414078 -3.4172907786637507 -1.3359161267770563
H -2.322460347760002 -2.5381258609556188 0.10493043508313013
H -3.5438775262115945 -0.851201521898692 0.8720319545524063
H -3.246685758536694 0.5480963321470933 -0.17890169565978523
H -2.6608460591709386 0.609155402021161 1.559919607242252
H -1.8310347133627245 2.0371359245447525 0.11585187518122157
H 1.0267690324250218 2.2987404688643007 -0.9137724430746661
H -0.2051293902697794 3.6041485882304434 -0.599606235825214
