29

C -4.888778913310333 -0.08675595662019243 0.49217379781757836
C -3.8538617783495472 0.7635895049900934 0.5048304716912024
C -2.6104619769905377 0.3291806188410018 1.1967655471862662
C -1.8209285051516295 -0.6245410866425675 0.3050301983590689
C -0.5908396929007502 -1.032338323757225 1.0325713099158367
C 0.4639161151106998 -0.6232368422077738 0.3499755161281556
C 1.8658819409909007 -0.8420701513489548 0.7557106654771382
C 2.8617612240769317 -0.39580900241356604 0.007931888805667897
C 4.21696189619326 -0.6144327437249434 0.412347675494333
C 5.0822912108048905 0.3178309915312097 0.08724282293206694
C 5.869189966742053 1.2860165876645384 -0.2785078572939035
C 0.02608821628566314 0.07146350812025004 -0.8551946132560998
C -1.2988351576978752 0.07757633286257673 -0.8930870555222856
C -2.108987101797389 0.6995634447998041 -1.9807349757618733
H -5.7888579798553295 0.22196176575541618 -0.006035957195008659
H -4.85261098253255 -1.054857170367184 0.9563799478349742
H -1.98584973267229 1.1957513072633783 1.4853988166166645
H -2.886257955631666 -0.25340117783870325 2.1098436024884557
H -2.413100793178686 -1.512995495029078 0.04731275520935907
H -0.6085215464555748 -1.5830273154960146 1.980360981133647
H 2.074295701637176 -1.376328746647623 1.6798743237089178
H 2.621286884649377 0.12585121383861647 -0.8952119015364636
H 4.641469255964377 -1.4241494000553494 0.9424129474686123
H 6.322847482857595 1.1744987544536605 -1.242215386584991
H 5.972648843954579 2.0853234833399736 0.42616593496839283
H 0.6663986439831663 0.5186982434576165 -1.6119956668115958
H -1.7540473688500478 0.3352216277296729 -2.966170463489922
H -3.172624154888626 0.3960665412713823 -1.8695884083544556
H -2.0504737429876734 1.8253494862303146 -1.9305768628607327
