15

C -2.663224710430848 1.3140949660292196 0.8492020701209968
C -1.6817481890849355 0.45656622936205654 0.6337231260890531
C -1.7231379202878596 -0.3232635370197273 -0.603413783954941
C -0.7600262011732902 -1.1926566243345023 -0.8574330592888142
C 0.3230680138478978 -1.3559782683133923 0.10065226441763872
C 1.4219517794195398 -0.6609420491711347 0.07555651444950696
C 2.444845945853173 0.11394043907128054 0.08321108609703215
C 3.629239408898302 0.6231392214757684 0.017630081587348516
H -2.6172725493101954 1.8841958213584236 1.7711071687099893
H -3.49076602071872 1.4715163040543597 0.16704588265678202
H -2.53704454332422 -0.19105522962196148 -1.3088996698483024
H -0.8184286638641237 -1.7529177249620609 -1.7782356456797903
H 0.21844259637139343 -2.093770369689414 0.8811421619119503
H 3.720757528235862 1.6438940861955404 -0.32894313045884666
H 4.533343525568178 0.0632367355656374 0.2976549331904798
