20

C -3.9131775821785846 -0.3919631342676502 -0.0311440334195367
C -3.751560176703373 0.8956997702708039 0.13717189740500615
C -2.4370011270360483 1.4303764738783586 0.563524525875702
C -1.3747323526022153 0.9685326081311723 -0.42088451752017986
C -0.037787628067642076 1.4594445778719685 -0.06595816380941151
C 1.0092346416376994 0.812916247219867 -0.5423327776862208
C 1.8271149341432074 -0.04055839572021159 -1.0843863712532091
C 2.2021532497843705 -1.2207494791073963 -0.3558538042096916
C 3.437759126037233 -1.2570610798479764 0.07060343025369863
C 4.681254020153477 -1.2427579553335901 0.45625760710199365
H -3.082870756531604 -1.084945466786654 0.1403959499261794
H -4.8384540671630445 -0.866436538062763 -0.3405554061195419
H -2.4758283440963686 2.527813881735919 0.5439008710379833
H -2.2391351708659126 1.0737771573178225 1.5901093821164836
H -1.6530418595456962 1.4571793566228453 -1.4009722876354829
H -1.4327538117922751 -0.11078782064595795 -0.5594010454846946
H 2.2127354644258066 0.1329827351806019 -2.0632251512843474
H 1.622700614980544 -2.0723472753993315 -0.11074102864213897
H 5.389010318834343 -1.6584423053319535 -0.22922477222422097
H 4.85438050658573 -0.8126733577261162 1.4212626464990494
