13

C 2.265169421218956 -1.7610080955767005 -0.8501097547659491
C 2.108119776590241 -1.0430075068109166 0.23397099507094896
C 1.5902254715030104 0.30355962154585797 0.17577828385947455
C 0.2959623744979574 0.4230108223345252 0.21864450742297273
C -1.0056889333380024 0.5482126545415354 0.14646686249763868
C -2.2570655918332347 0.5973438378440667 -0.5749615161254128
C -2.2210665748979532 0.7530555667672618 0.8869071445291598
H 2.6503909838462576 -2.7540725430749267 -0.7764067351182642
H 2.0070659431693803 -1.348947453094488 -1.8006500698818555
H 2.158211494945706 1.2114577900165129 0.101260500606574
H -2.525351466354602 1.3940252039297776 -1.2715892026105708
H -2.7019327309293715 -0.07780423107065047 1.4707460143198927
H -2.364040168464346 1.7541743326954033 1.3682609283965985
