29

C -1.2000685248282852 -0.7888079838391547 4.08504079850904
C -0.7553053310611312 0.15106072397388076 3.286237746762027
C -1.633177679670481 0.7895037736004331 2.268505812844943
C -3.064712254668416 0.715816259878245 2.719762267547723
C -1.4445565787618222 0.1052235087731357 0.9171591945640085
C -0.05753402394900713 0.2010054766705987 0.44747222433085254
C 0.4378008150521143 -0.41733045726336054 -0.5934623012262773
C 1.856857561563227 -0.28646219809200413 -1.0300112057733073
C 2.5141810642956024 -1.608499991384055 -0.8786705851012101
C 2.9557423519558554 -1.9906437710590903 -2.0464566593676263
C 2.6416651139091742 -0.9866997474057825 -3.050427115011566
C 1.995032364630798 0.02213007856528561 -2.465843701549752
C 1.5259938742617847 1.2026134327240487 -3.1568040182596455
C 0.8963316502692974 2.1749290534322068 -2.553776885967754
H -2.2288831314823345 -1.1032355044111206 3.997862171274415
H -0.5920065678151203 -1.2752364230029967 4.836102775114305
H -1.285575572912562 1.8435838038994201 2.1732607075227515
H -3.5695526982576555 -0.20658715595090077 2.395062365412719
H -3.5978785726999827 1.5973613174073376 2.2601686485937473
H -3.177888503482355 0.802175268336691 3.808199847642428
H -1.829560598595185 -0.9256888690306452 0.948602254341546
H -2.085893537735368 0.6635457108991408 0.18946467384460894
H -0.19865948395959881 -1.0750021128309506 -1.1994025354610474
H 2.5822454654644162 -2.1271013781111034 0.09185229188600247
H 3.4820500343670586 -2.9443940929535226 -2.190039628545598
H 2.909990667971439 -1.0790188797295275 -4.110959851701624
H 1.7017279902685118 1.291099967032689 -4.222423582168035
H 0.5542699431370894 3.055413333981621 -3.1078648343892157
H 0.6673641628274919 2.199246855641794 -1.502667691048944
