29

C 2.95925604631824 1.3585824410985505 -1.1117317398828215
C 2.080234005023186 0.42478942591223884 -1.3816337332555344
C 2.0525025834200776 -0.8433555570753751 -0.6133086498298591
C 3.2051902261588348 -0.8738518760563305 0.3230923384815675
C 2.7671299827014932 -0.9792167772740125 1.556152526614277
C 1.3162246709996572 -1.023885961724495 1.5058159468668688
C 0.8675389591972507 -0.9477650385623447 0.26824755273545425
C -0.5425529980180477 -0.9672184676503618 -0.10811831152387748
C -0.7804599073478016 -0.914042765150767 -1.5570178311760752
C -2.02084842579179 -0.7270418804521721 -1.9853154832837319
C -3.145689565760375 -0.5749361278313085 -0.98857368799477
C -2.589278375965129 0.27013061508921155 0.10098173589983114
C -1.3429207965056156 0.09816420684903482 0.5378559878275885
C -1.0708384405530198 1.0640111103464083 1.6068333440395863
C -2.1376887563736 1.8126569357374638 1.816474885923824
C -3.2209502064926467 1.3814421939735553 0.8733326823461879
H 3.6821744475814238 1.2176370839098642 -0.31975309067559665
H 2.9829945453405755 2.2894926994311593 -1.6724348220471867
H 2.1592447274562643 -1.7201842500275537 -1.2803847971612268
H 4.235270457501368 -0.8156926290564664 -0.0005336840605483498
H 3.3420720643396677 -1.0285038701753926 2.4861354850974675
H 0.6842271227940591 -1.111606165152037 2.4116589176559406
H 0.01835993554313469 -1.0219237719180987 -2.2726647362385837
H -2.2127886251532822 -0.6854949695102761 -3.050917476708659
H -3.4035310020880205 -1.5564599011286073 -0.5307899423954093
H -3.997445993112052 -0.1227503607274029 -1.4896253320533344
H -0.1295247666299176 1.132529621320297 2.1293203533411496
H -2.2914738303189384 2.6204263700782 2.525759135508269
H -3.466428084261485 2.2440676657261966 0.22114242595280179
