20

C -2.36993020352934 2.4302216743311162 0.04409862373056841
C -1.2120442453796467 1.8416575027132083 -0.09050759413785751
C -0.786519276693406 0.6069963021101413 0.585550313643046
C -1.27695174308001 -0.6957416125034313 0.1995768390974685
C -2.1787090912003237 -1.6204222487572824 0.208439371560281
C -3.109890028791278 -2.5432713580044664 0.30573341057820147
C 0.05155870284443386 -0.31471101596184875 -0.29291448922947927
C 1.1725297820494007 -0.5031124686319658 -0.9575535670731743
C 2.1832419639700347 0.496750892561815 -0.9852368680495264
C 3.263147630318637 0.2692836591933219 -0.2801559048426652
C 4.308177505459931 -0.041564819724631136 0.45322220436014443
H -2.5584042048541353 3.3403120240589477 -0.5141360646848349
H -3.1246504351786175 2.0332084170882143 0.6880286838354686
H -0.26486362609503766 0.745443115133356 1.5750247728098121
H -3.072930046102106 -3.2148139304037073 1.127394820883656
H -3.850759677301632 -2.5347815296134875 -0.48266165888969315
H 1.308296802167996 -1.4308894122184117 -1.4802618939668968
H 2.199908545171822 1.4280996872357758 -1.5043813566389823
H 4.254136175026884 0.2842172709928035 1.4599631764895311
H 5.064655471196214 -0.5768821495994064 -0.059222819474892226
