42

C 5.280700270376066 2.987850534084545 -0.12735233716146654
C 6.086476854659146 1.9572322903563357 -0.19881782896233605
C 5.681472152229563 0.5671207865002108 0.1508633158575995
C 4.988127539532598 -0.10665815532772982 -0.9507494755815953
C 3.7866295892320703 -0.5929417113529103 -0.9757094447314432
C 2.870432317760554 -0.5510784318619053 0.14556631135671447
C 1.6433448031239029 -1.0620357623864767 0.0818902996369977
C 1.2383466031043995 -1.685671701819976 -1.1953360231801449
C 0.782661809708397 -1.0025914663908464 1.191396463860097
C -0.36288744509095733 -0.41120198018405346 0.9986614884149384
C -1.4640109317476226 0.14725405836370586 0.674507497590531
C -1.4057855618754476 1.6130101129557686 0.8206808002539041
C -2.354303320755452 2.3686227223602674 0.017147285278267664
C -3.6136679735657253 2.1028587711345623 -0.2617156501039176
C -4.443141525199805 0.9822271585392404 0.14188404640224253
C -5.740371815205137 0.9364570411445308 -0.5455440656951734
C -5.845908832850937 -0.22699696071557682 -1.1798998918252082
C -4.638421715745158 -1.0093709618825033 -0.9556534658146298
C -3.8183499952070927 -0.34599387290412087 -0.2079545277774074
C -2.4904178577190823 -0.7017568931723984 0.2495463381078858
C -2.2818193922087286 -1.9509207228295944 0.23618226148213728
C -1.998912419121965 -3.230879185528993 0.20573500089725708
H 5.60385642324291 3.9863515667549496 -0.38815865136880634
H 4.255621290221974 2.8662162671414713 0.19914390071037436
H 5.077724044513616 0.5350569367776549 1.0693990246940284
H 6.652084436297179 0.03375591935116695 0.3938314060878736
H 5.588524309753048 -0.2035249908664683 -1.878090166793084
H 3.3916654644456443 -1.0781015392523667 -1.8825849960965015
H 3.2130241141722458 -0.08321776049642655 1.0584101616798398
H 1.887435359179467 -2.5572722453683743 -1.4296661391208743
H 0.2071772840630778 -2.029798003368924 -1.235375278409401
H 1.3628969125476784 -0.9606717229046459 -2.0521039741499543
H 0.8651116535967263 -1.346920539390874 2.1926028891292884
H -0.3733368335921248 1.9407440236339242 0.582779432313236
H -1.5506080305664165 1.9016658020059078 1.9016412852015816
H -1.9284848202555465 3.298938107117626 -0.4086784241702584
H -4.683657268442338 0.9792163162940856 1.2388884932864745
H -6.516358086440273 1.7243483832564666 -0.5501350125296953
H -6.709198080864002 -0.517992826308471 -1.7646013533178357
H -4.420379710198973 -2.0175155636875455 -1.3463500699610762
H -2.210333582296427 -3.7085171493743148 1.1153149665719018
H -1.6129580327584092 -3.5472966505611354 -0.7179735905879646
