26

C 4.374180784375122 -1.8454978885042108 -0.29009610828764915
C 4.1724356361840504 -0.9860692369118675 0.6722411658468157
C 2.9337289825366732 -0.2809506269739231 0.8729470473756288
C 1.855959615345476 -0.40949674824791793 0.12109032087789842
C 0.620472068027744 0.36772357320797805 0.4135892921512444
C 0.9452326067779969 1.7504338278478557 0.8457488247439214
C 1.1459038812484887 2.695648526032027 -0.09033111231192065
C -0.21749346277435652 0.41048848521591197 -0.8107174291538621
C -1.5257731839099107 0.4731959193226214 -0.7032893206127633
C -2.1478730155725083 0.5004159478793094 0.6400500453306387
C -2.652358623449352 -0.8021157405672497 1.0473557084948426
C -3.8325658850799833 -1.1481266192485677 0.5786438626484219
C -5.0068579307174375 -1.4048809506031539 0.06775307678944893
H 3.6190810023750277 -2.0834986788302317 -1.0015587232857515
H 5.32586369910299 -2.3678455868785817 -0.42007631276915336
H 2.887825739590599 0.4040782011441374 1.7030425695671167
H 1.8760050953697058 -1.0928263904119508 -0.7210770172040559
H 1.0217488248782767 2.0046729574380615 1.8946211207076185
H 1.0728357113165023 2.4559391611575947 -1.1330482766799088
H 1.3838415978629148 3.712479013301094 0.176390575646052
H 0.23871483114728478 0.3905203258406805 -1.787126662469462
H -2.12655761853344 0.5039045867699797 -1.6020137483623647
H -2.9267473225416976 1.271391443566705 0.7499900129061715
H -2.215135273832659 -1.531973984517243 1.672572928208733
H -5.833864704459561 -1.0906553470607718 0.6558739088973604
H -4.988603055267791 -1.8969541699683141 -0.8766357060638665
