39

C 8.46463820363151 -1.4467294649375706 1.6482670905367984
C 7.35486275433302 -0.8151398145495448 1.9730503531694061
C 6.232642519964775 -0.7631619364335204 1.0244311646862783
C 5.134112645194243 -0.13500525881568107 1.3523810412975816
C 4.029147328732578 -0.10044598869492098 0.38214460068622047
C 2.8527455145921503 0.49678075025883445 0.5690894065292109
C 2.0265782305094775 0.3024979620006889 -0.635495330652068
C 1.6543632249638376 1.5951789960038845 -1.263792340961533
C 0.3960934907332724 1.855773152116231 -1.5676206142797646
C -0.6449995703010141 0.8941997731974496 -1.2975977861760992
C -1.914954186101838 1.1505319490566999 -1.601287838775385
C -2.982694025297111 0.2301003474759775 -1.3534730684374534
C -3.3205671772995937 0.05814250979833896 -0.10361502588425645
C -3.6522568736122354 0.02685319372357997 1.1609012739387783
C -4.620915757897888 0.9924168354489022 1.5864419063199036
C -5.899892706401007 0.6766766036073284 1.5535106361699305
C -6.310866256594428 -0.6102342585807966 1.0996421410383865
C -7.100642739430009 -0.6479944846593216 0.054778930239156476
C -7.889382399843404 -0.5858971515951663 -0.9959636535918478
C 2.892726643250456 -0.48993328140307374 -1.5408727734939487
C 4.038758784983871 -0.7114986675633901 -0.9388458312892447
H 8.566672149694115 -1.9367047564251827 0.6782940968938013
H 9.268945093623373 -1.4682425711885478 2.3624195298236375
H 6.334205586587059 -1.2471931905478306 0.06695100955329507
H 5.048052037174357 0.34779176483756885 2.321892418165609
H 2.6053833105718622 1.0251420175619246 1.485159490032279
H 2.406340201098696 2.3349714764255944 -1.4788669803821368
H 0.13102027182216686 2.800603362797081 -2.0258025698694726
H -0.3752228714314713 -0.04612928001442941 -0.8407104538307737
H -2.1585386525109858 2.103664703649617 -2.0599347577378704
H -3.5529906923910795 -0.34238070897003076 -2.031616501665413
H -3.1535110805462305 -0.7180080218167791 1.7135425397637651
H -4.2995903896629155 1.9798098452646606 1.934265030392774
H -6.612430863019698 1.4139021647133423 1.8766191627119753
H -6.068340614756086 -1.56787365081802 1.4892149024063615
H -7.383591643469863 -0.6058475837538103 -1.9253605123185287
H -8.920645028060644 -0.523804432611485 -0.7666457629412629
H 2.5559755592827456 -0.7984392202058556 -2.531022415913181
H 4.868769977883872 -1.2724091630823748 -1.3744725061550918
