22

C -3.7070965275271837 -0.9325867318042994 1.448206758328984
C -2.602075728691314 -0.5696662004406335 0.8277747006236924
C -2.5916295269154124 -0.22435622268452596 -0.5980088406213504
C -1.706952522160633 0.9126682300004963 -0.9706206958296176
C -0.28307291717575656 0.7291086956471504 -0.6706197250760144
C 0.26724898207980796 -0.3291385413528186 -0.11639186730058264
C 1.6997470637802743 -0.3906939181951824 0.1309433591976074
C 2.4166240332911437 0.6607218840348282 -0.22555721614124302
C 3.836782077966093 0.8110228427565827 -0.07413359455458592
C 4.547245170108667 -0.15183123703051127 0.462261290852442
H -3.6709401455653907 -1.1771038540970873 2.492740627451973
H -4.630281847590347 -0.9806076035568531 0.9067226822319652
H -3.6304950310358426 0.05559909846927179 -0.918039791050682
H -2.3495047823891175 -1.1369053284608532 -1.1845563621163568
H -1.8770919889269277 1.150166017378447 -2.0356436765409742
H -2.0457117628829655 1.8181643650507486 -0.39443419830956206
H 0.3648333226107002 1.5765798862694744 -0.9474096123467445
H -0.31876704630465114 -1.1855573306747016 0.17258681601653836
H 2.174272286765079 -1.2559943222389338 0.5877996346445009
H 4.290744302287757 1.715872800897446 -0.40594635950455854
H 5.635777786554108 -0.012130874242892479 0.5674552451189395
H 4.180344801722285 -1.0833316557255812 0.819270959938128
