31

C -4.414966777482135 0.8637091817395867 1.4672298847481782
C -3.1348690953676774 0.5787248555979354 1.622586466916536
C -2.126287890734502 1.1937843785338809 0.7403311790886574
C -2.5234304450024716 1.6311649239649584 -0.6112413136985391
C -1.6475198601756846 0.3886575519977042 -0.4021016634334051
C -0.20159392293644351 0.5176875655678547 -0.7439310589908672
C 0.7002443038861447 -0.21049012160755118 -0.09600668821417838
C 0.295903971128421 -1.1636219189781847 0.9761777907932853
C 2.131146789619864 -0.08761298247992981 -0.42910670848689053
C 2.8722888400871693 0.3608845674999446 0.7974103297335619
C 4.1264172936696175 0.07135931661621428 0.9838805716717229
C 5.407177415315965 -0.12295982315126436 0.9554212780397603
C 6.653418635575644 -0.5028783337893409 0.908538031189661
C -2.314739965083441 -0.8880955184408018 -0.764819010288529
C -2.763070098324033 -1.1410216171325587 -1.9820600038541623
H -4.750194912077245 1.536624227975144 0.710635103184079
H -5.1236894402598265 0.3909801386742945 2.1356907470845163
H -1.4029987570082925 1.8565012485146315 1.2659713307097806
H -2.012541003955962 2.447983639554388 -1.1411188346051202
H -3.5666508320498886 1.4683190228071117 -0.9493631936379822
H -0.5535064839163665 -0.7413776407160867 1.585412714288288
H 1.14372985211867 -1.433909465162664 1.6272390819435751
H -0.10682190306382758 -2.104232618214386 0.5380689599606999
H 2.533490564166394 -1.0649543333311169 -0.7894490989490807
H 2.34666438379962 0.6466046349825149 -1.206602210508859
H 2.379331255405076 0.9482834867656813 1.5776320900312906
H 7.438810292570567 0.19316373909295667 1.1495095466411116
H 6.942596022369278 -1.5088246196441295 0.6322673689816704
H -2.4393195799566736 -1.6424238655128967 -0.0023886643165950973
H -3.2372515821110057 -2.079031844851689 -2.1905264096225627
H -2.6517670702089022 -0.4029977768671691 -2.7664506360120646
