21

C 1.1764812361402637 2.509527034331222 0.9713919369074809
C 0.118446904458984 1.928810238975592 0.48014269139900256
C 0.1941856302192061 0.8863240411826149 -0.5975720882129183
C 1.527068590464062 0.2016412304562119 -0.4407276543982332
C 1.6974371828810075 -0.44480763511375504 0.866352167655979
C 1.8450977613531545 -1.7483592103252261 1.033556037039531
C -0.8888152370544573 -0.06679216675051829 -0.3700330922520651
C -1.7688663521996109 -0.3166124760871287 -1.3224869558967398
C -2.9012807371467306 -1.2827047290087745 -1.1507288314508501
H 2.1571517790013632 2.2574169187368467 0.6153521990326294
H 1.0734295062431876 3.2518515720573586 1.7436604660211374
H 0.0655625823529847 1.393232202850004 -1.5454924841709292
H 2.3746690147087417 0.791205230250562 -0.7874119784729291
H 1.70356157211157 0.1764710580742816 1.750589019754363
H 1.9711622070428554 -2.236176905122903 1.9884875246387954
H 1.839977182105094 -2.3762150947241873 0.15320787340608016
H -0.9845632410718809 -0.5783723520145425 0.5763492232444386
H -1.6776616885526001 0.19216293523266434 -2.2704103008885403
H -3.1248359583438248 -1.3401239880811062 -0.07486295992318608
H -2.594670385077728 -2.2708126980513756 -1.5596655860965685
H -3.8035375496359483 -0.9276652068674701 -1.7175707490660082
