16

C -2.7114061813625576 -0.9321690894237616 -1.2635770494607221
C -1.6202324808694708 -0.3445260457335293 -0.8432597660726803
C -1.49490624044411 0.11997003343254628 0.5349237247700789
C -0.3878243033013851 0.7109486266910321 0.9437830055913058
C 0.779257387522717 0.944467713177256 0.07010810247531435
C 1.999992009726132 0.27423720313280425 0.5764989329879945
C 2.6322615321072353 -0.6321146167174504 -0.13723265893916112
H -3.5271317085414715 -1.077110568485177 -0.5917276902412706
H -2.7811903854210325 -1.2636252545800666 -2.274921715270713
H -2.318041011413713 -0.02443521213197227 1.2192648494306202
H -0.308762037081027 1.0500269527669983 1.96740271157415
H 0.9689810537895627 2.0558666043638363 0.09356623194283284
H 0.5930865086398306 0.695020247336314 -0.9859335989803218
H 2.3690004606100703 0.5408639919717909 1.5485199078949914
H 2.2872182089204633 -0.9347653752350917 -1.1392296980476357
H 3.5196971871187466 -1.0901722003363543 0.28181471034520095
