27

C 4.525067865746135 -0.9195880093565442 -1.3720657874935849
C 3.4033608450495625 -0.7824363377727923 -0.6971257158825415
C 3.3185182528394086 0.13127268194284022 0.39840454720004626
C 2.1303378507089317 0.22105612187142798 0.9334245281841096
C 0.9245043542088418 0.39974868251741724 1.46654454056475
C 0.11877072369475616 1.336859720007009 0.7943023765229225
C -1.1244737568296812 1.2309984199735566 0.3255098308394207
C -1.7626095158498853 2.376179939698329 -0.3550902176115517
C -3.104155059947537 2.0911978801043465 -0.8041214118869868
C -3.7054434625816777 0.9391682435027248 -0.6285331657933929
C -3.087209190644651 -0.1840785793307952 0.03943976444492228
C -1.8314773858704412 -0.009066405541209684 0.49196764065198295
C -1.186013287223633 -1.1188370784229298 1.171879673711687
C -0.503812071134219 -1.9255725469712996 0.40296548519809317
C 0.09426545442820158 -2.7574606808822417 -0.4302774583599975
H 5.3780296434122 -0.335733804419092 -1.089628744050202
H 4.611405289605561 -1.6043732994561495 -2.2035906964787846
H 4.061125955426127 0.7414432494942503 0.8388411090032856
H 0.7899689220453237 -0.20073943755295248 2.321486192909663
H 0.5790656546751308 2.3338235815075214 0.6188204869543613
H -1.0633680954389362 2.7574199896763387 -1.1251114432427702
H -3.6318199901594377 2.921709712408828 -1.3275399747561318
H -4.731391908701488 0.8824858561980755 -1.030816305530038
H -3.5917520315600058 -1.1083553758483744 0.17195569519378098
H -1.2055921505850864 -1.3650789113283937 2.194884963593784
H -0.513433652854371 -3.5349862853592544 -0.808358424058195
H 1.1081307475414732 -2.5170573266612664 -0.5978508476965836
