21

C -2.717288306654364 2.463568191646737 0.8637037189657099
C -1.5835674330018752 1.9376315158557957 0.5031146912122585
C -1.3820737269857772 0.5373699974762183 0.1874147278706126
C -2.3694084817010443 -0.36681086893184767 0.23916997570774082
C -1.8750695207619552 -1.685204276694072 -0.12775403408435837
C -0.5743267051406983 -1.5534943219324173 -0.3999341804493205
C -0.1810665321940017 -0.16403621579396743 -0.22236144939460217
C 1.0079703063629177 0.3769327054490722 -0.3902659000800063
C 2.2003663894680834 -0.4104352626616369 -0.8146113722794158
C 3.3082027891850245 -0.3664677944825012 0.1818934145576077
H -3.6101584395585364 1.8684039977179483 0.9533415211909742
H -2.7787089217685055 3.509326894649153 1.0791138981344097
H -3.4003094313777726 -0.15943608419750327 0.5149133346194285
H -2.4846717042046564 -2.576515045513702 -0.15992248888020763
H 0.04361740808061832 -2.37345288185193 -0.6991600753509098
H 1.1848112233441062 1.4340449891297598 -0.22726531951484835
H 2.5141213358112036 -0.02298914938105427 -1.8062433104340818
H 1.8798276215305998 -1.4657509547481118 -0.9358943593856551
H 4.279155244276884 -0.2673874033800856 -0.3414797756515624
H 3.3520709388726884 -1.2646518413251127 0.8108398986554257
H 3.1865059464170526 0.5493538089692586 0.7913870845908106
