49

C -2.045417930154934 -3.442620704102704 4.035966597302917
C -1.6283539056028125 -2.8783457552842666 2.921242982524224
C -0.8089764481997944 -1.6777173994452241 2.7238120656397755
C -1.1818825929366132 -1.017022709812195 1.3917833437731921
C -2.667482188073693 -0.6418958527900694 1.5436241760770728
C -3.1636837372464406 0.03701679333100335 0.29293301339597794
C -0.36333019357394963 0.1352410706590047 1.0533377838204823
C -0.2479637468433129 1.2429451310048847 2.0272374857445157
C 0.37285619674558723 0.21819690307881748 -0.10065039991712023
C 0.3436454897051719 -0.9107549476522031 -1.004582231651111
C 0.6597944765269417 -1.0837325677513763 -2.229789928794118
C 0.47820792820331737 -2.4736720616358894 -2.8088583999913395
C 0.6328955262893248 -2.46769427198358 -4.1254493509918
C 0.14841160749128735 -3.6639651610472503 -2.172404923451126
C 0.05854017433445532 -4.1804449855413885 -1.0181934308051457
C 1.040655928904901 1.4715378839505282 -0.3696274714456171
C 1.8603612423416176 1.8378485279086587 -1.3519387887988739
C 2.31067598980933 3.2226096550230667 -1.2116019128636066
C 3.0057140650666456 3.912126314000655 -2.0990046862366527
C 3.385819904525164 5.319093792514385 -1.7930698068973148
C 1.8741042120555345 3.707687138690733 0.08728947002359991
C 0.7270470724680739 2.7494745460825976 0.3715611626966971
H -1.7882303787843974 -3.0265214764628507 5.012860012386934
H -2.678539782070899 -4.359727793119882 4.004218137922062
H 0.27756820320981446 -1.8631386508060055 2.8042606423215775
H -1.1034363313845204 -0.9620105615885544 3.5126671235423412
H -1.1215601088488034 -1.8462500331057496 0.6609846111610881
H -2.8549660331623232 -0.0002608201463535031 2.404352955323811
H -3.2013967855165877 -1.5922734385886446 1.696330000351988
H -3.752559898541492 -0.708790199324652 -0.27925411308872417
H -3.830930011304246 0.890920788048634 0.5030711989491919
H -2.324812014855669 0.32799392914928405 -0.3922086651322959
H -0.9539064401520244 2.0226402985606478 1.7924681679459356
H 0.7783000286639352 1.565333682103916 2.18129251771843
H -0.5095580867125151 0.8034840031991183 3.0704052845102305
H -0.04582945417333809 -1.8327129395019295 -0.5132094251637358
H 1.2005089037449415 -0.46845515357964584 -2.8317678605308645
H 0.5459903303907168 -3.3767022158845434 -4.680650435669738
H 0.7431924093650025 -1.5674396954826424 -4.704885840729781
H -0.7012931792190195 -4.252089410593855 -2.8380905561002323
H 0.2513257358264521 -3.744131494317328 -0.025286434421114015
H -0.37485023134429285 -5.222874363884754 -0.8021925767114813
H 2.1995663603435136 1.2305913420251122 -2.1692000725223877
H 3.7751596053721213 5.860285021123834 -2.6679594194886627
H 2.545491083222934 5.878286930776783 -1.34682905022625
H 4.240616591606175 5.255680680387231 -1.069742018990564
H 2.6054786997878083 3.6257801938255536 0.8763148782887311
H 1.517867088530295 4.760269431627274 0.06704797705645538
H -0.23083537586501832 3.186200606381886 -0.0685702637095484
