15

C 2.2967615201893983 0.8760586692051535 -0.23114538208608343
C 1.8220163070063402 -0.24477100709473343 -0.7684655519289795
C 0.33015190561170393 -0.3930073509604663 -0.8082959387302027
C -0.2687863783879633 -1.497067543747723 0.035459302894651094
C -0.40740891866905965 -0.04732335067842783 0.42927055946269593
C -1.7660632040500286 0.5727288328821332 0.40654520674245515
H 1.684066371503046 1.653788554429727 0.16226606653839176
H 3.379866016860854 0.9793945181804252 -0.2042235169499975
H -0.08899489509164868 -0.2064561147579725 -1.8179316345589287
H 0.430271711112451 -2.1245204332362593 0.6179459736178753
H -1.1841638253204914 -1.9790129387161572 -0.3778229735651894
H 0.21642913649076861 0.25585230929318814 1.3126971534887972
H -2.5634761866950293 -0.1675786081487515 0.6784124041500599
H -1.8834612026194573 1.3941392698700217 1.1698995147169937
H -1.997208357940891 0.9277751934798388 -0.6046111837925363
