42

C -4.94206649773842 2.4256427780634624 -0.696781000076201
C -4.543480425380522 1.3610638319169375 -0.02143984000729407
C -3.8477481616913853 0.2767069647414489 -0.7697766956501771
C -4.850577127877496 -0.7134233722648788 -1.3709020995757861
C -3.9028582535711926 -1.8180719127865987 -0.9223846458483289
C -3.322179558004649 -0.8267464474654042 0.09464794328627502
C -4.065977412589125 -0.9543651288089648 1.4076490713857983
C -1.8726863442557335 -0.9877737175095289 0.17354320516250857
C -0.9785223717078914 -0.155499881519844 -0.27655637679905887
C 0.44726525506258086 -0.42889801204651556 -0.13739786749524258
C 0.7311565862476642 -1.5737305007574192 0.47413628079827885
C 1.9852542750351052 -2.247088584055339 0.8283059161767563
C 3.1860850160275027 -1.4548943305021123 0.48377151967581605
C 4.091411665880819 -1.282359964688286 1.429952536989008
C 3.4994172670852293 -0.8232092610944234 -0.813497310698909
C 2.657681800520742 0.4159222537884948 -0.9553312853786085
C 3.40594525347516 1.534150345526537 -1.473866013079401
C 3.904437666419218 2.4235631514108062 -0.6698001937576504
C 4.640554862535147 3.1613712079022984 0.1508084203370375
C 5.918778881925387 2.525365437650033 0.6301851309218366
C 1.3887879493448807 0.5467763499494674 -0.6646409887046274
H -5.45934307550183 3.2457683672416837 -0.17499729537084774
H -4.789026146560576 2.5409890255709677 -1.742748191127868
H -3.1746244855546784 0.6116990454543261 -1.5695664604662924
H -4.963357672958927 -0.634002348925143 -2.4675016729203794
H -5.827436834396058 -0.7080575822723488 -0.8331286732197003
H -4.381079341187344 -2.6859696364846397 -0.4692640570034607
H -3.403289129786908 -1.3737492256415926 2.1866764884973984
H -4.45037725706038 0.04476444220711939 1.6990352015464218
H -4.962473573087903 -1.6116958023722527 1.3222024840024191
H -1.3067546409454653 0.7575606133697517 -0.7637478340000748
H -0.14890544243194065 -2.1426365274202213 0.7832591871201853
H 2.044832977656719 -2.5040616673174756 1.9059079347428762
H 2.058123222753709 -3.1960517644334256 0.22174731280419016
H 4.982868603018414 -0.7141358446467552 1.2304656389091195
H 3.9148246928163934 -1.7215714663323725 2.397136892497341
H 3.229377985408334 -1.4639096137643584 -1.672639290126704
H 3.560404219236759 1.6389032550726832 -2.521566006608518
H 6.48711082597422 2.1807612617574303 -0.25997370954545107
H 6.4897132941672995 3.197130270406618 1.2684154085272294
H 5.5862944447907426 1.6158015088808704 1.1931471998134748
H 0.9824370069089632 1.5179624821970499 -0.8414914269511028
