28

C 5.1853343637857625 0.09852067545682533 -0.05692068177937486
C 3.9066174338191195 0.4056273968312786 -0.2887607687031742
C 3.2548687942089525 0.21441266719575824 -1.5906735950237196
C 1.9765124630415707 -0.5920772983377993 -1.397074813644105
C 1.0924830012717728 0.14923931464358411 -0.4955762147211452
C -0.14263868657007006 -0.1619875540027926 -0.2117668020426499
C -0.9369934758227714 -1.2772611401979892 -0.6921150183209542
C -2.160467880740276 -1.2059143105689312 -0.13597070759946714
C -3.473623879120189 -1.816764807349786 -0.03701712838121689
C -4.259988275994916 -1.146751348385523 0.7725550036626251
C -3.5567539141663134 0.018085108036245145 1.3263667018111867
C -2.208994512327186 -0.04201119563366038 0.7271341036952265
C -1.0127577656398496 0.5826046440031438 0.686359204007867
C -0.703856220811813 1.8105309653714885 1.4484841258477292
H 5.6632603049518755 0.23603903895801093 0.8885987923220158
H 5.744757523206023 -0.310555749978558 -0.8906404785972584
H 2.992274892759944 1.1818900552724645 -2.0508220151104197
H 3.9404369772352026 -0.3154920910307783 -2.2776598805620254
H 1.5295732402994755 -0.8753909775055122 -2.3531689352068494
H 2.2848891395252964 -1.5451898028897424 -0.8967808740109936
H -0.6305287757952853 -2.0452143609743376 -1.374759989510049
H -3.7788334340620784 -2.7178962508817577 -0.5639261938647289
H -5.312033145234418 -1.3952010634262662 1.0263695531555679
H -3.507592661743085 -0.12764438060268551 2.447010508372493
H -4.0656239725029355 0.9800207347195992 1.0884457898378446
H 0.2481943217397328 2.2502118344279465 1.0854377067025394
H -1.489055018548846 2.604169776226757 1.2852539564651402
H -0.5794608367641896 1.6216766278740795 2.531618651197881
