20

C -2.764008947544608 -0.4560166036215396 -0.17729354746891507
C -1.698074247371353 -1.169788243100575 0.14762023995510123
C -0.721134694349117 -0.5973692625943599 1.1085899493396931
C 0.2307394462364719 0.3726347852637366 0.4044616738454705
C -0.5004965184768435 1.5007417924558923 -0.2181059917239569
C -0.4048513187720005 1.76174767906567 -1.4994051915011724
C 1.0467924984374202 -0.4030254727016312 -0.5176337163479708
C 2.1688411824556697 -0.900395603536723 -0.03387641931508196
C 3.2588060012306825 -1.3428820637278627 0.5274980648561362
H -3.471428809872507 -0.8966748252117238 -0.8872878326708512
H -2.9079537749511934 0.5171284950356329 0.25284476056767097
H -1.30393147588109 -0.07118872748588201 1.894962681393023
H -0.06369283005772704 -1.390545360841755 1.5468200430426078
H 0.8363689750400006 0.8275781871357323 1.2387436193483026
H -1.1260825070978298 2.116433947468654 0.4148572652066656
H -0.9431401043656159 2.5885480001374783 -1.945698958740205
H 0.2087671735740348 1.1736914028922532 -2.1717859529625776
H 0.8828694894031377 -0.6366704760420987 -1.5310421730308317
H 3.1705311626886927 -2.3001191467290423 0.9850710862016895
H 4.1010792996739776 -0.6938285038617256 0.46066040000556924
