15

C 3.1989053347988174 -0.23772944267386203 -0.40718821518363124
C 2.621267116183644 0.3784025943271774 0.5869396925510323
C 1.2173142993258332 0.6186503153476831 0.7116293218518489
C 0.3779036035415404 0.21396187174965228 -0.21320986469704437
C -1.0835516098961995 0.4784411663518946 -0.05719212495103808
C -1.7833128328274592 -0.8347804529030839 -0.0406840224223184
C -3.101169221852006 -0.8242584958604872 0.0022266227381210588
H 4.297239681079673 -0.36234866798815046 -0.38931679926371526
H 2.677543989583786 -0.6424632538925554 -1.261158844993595
H 0.8606224586337887 1.1469618956057615 1.5949995766603045
H 0.7336256425299932 -0.3060563004630781 -1.0815968899190538
H -1.3147171716536497 0.9881552450390808 0.8881996055601993
H -1.4017575828055677 1.0706145981591144 -0.9597008170799253
H -3.6792571493515682 0.08052777555364447 0.02532965582074603
H -3.6206565572906086 -1.7680788483527965 0.014628671203109265
