20

C 3.8746675146608176 -0.37229780238514776 0.1334773527550614
C 2.6431983957820364 -0.10740462633698754 0.49739836736275567
C 1.7875487924838358 0.6800581630140567 -0.42702767685760623
C 0.40201309581315103 0.9000046797363203 0.12822588801800597
C -0.32370341450599077 -0.35527302953273804 0.387617050909734
C -1.5998512877479003 -0.4733494682945617 0.040835872629110335
C -2.3481165103238966 -1.7302766455526881 0.29392371933336753
C -2.313673869686142 0.6569620924402374 -0.6128695395089756
H 4.2481999833635955 -0.026642206943652803 -0.8080674164967232
H 4.516071385184749 -0.9403965407016428 0.7831049787996165
H 2.25913148428096 1.7010483411603041 -0.4906967115396419
H 1.7707808928707942 0.23207224454739425 -1.433949574453164
H 0.5062027858637398 1.5523718750265514 1.0159393279715667
H -0.15627494080827195 1.4856148782097602 -0.6408299014560609
H -3.0831406150370664 -1.5501109972250846 1.1204524250520014
H -1.7003711763050915 -2.5936719471848124 0.5018476497999257
H -2.996194668604109 -1.8939245090846897 -0.6153757256850668
H -1.9221907904969002 0.7649753219639832 -1.6502238522810762
H -3.384344292813096 0.4598848639375428 -0.6905298419195001
H -2.1799527639752436 1.6103553132058481 -0.08577291579566239
