30

C 6.39252440484252 -0.3029278488233933 -0.6574846484413321
C 5.259915657291501 0.3630789681399408 -0.6689633194107021
C 4.3781798403977215 0.3738164871521108 0.4517515921832324
C 3.2046655534726756 -0.20696156227648102 0.2670533833150648
C 2.0313832128306295 -0.711581549788456 -0.05056849708434719
C 1.0641650470939845 0.22277481829594736 -0.6091726307200027
C -0.29458151496511603 -0.25615068283565134 -0.31787522228224424
C -0.5067247351346726 -1.466154373669566 -0.7613160428806529
C -0.8092916227262683 -2.6757423837603294 -1.1714044022317531
C -1.3473279426281388 0.4081414065769795 0.3537174567904144
C -2.552043574075604 0.2868347081766057 -0.14803882314396605
C -3.7395256554939866 0.010273435368514635 -0.6459509454187076
C -4.394302835107308 -1.1573312846523094 -0.09694363706037604
C -1.3265597142479773 1.2174442659220215 1.5301296887642626
C -1.6654531992356525 2.4824125692333894 1.3732861453031335
C -2.019033684304101 3.7217205011413905 1.1293009411898611
H 6.688493419252842 -0.8754776166668301 0.2321260720010599
H 7.0293849248531615 -0.28593696129350227 -1.5219982381475676
H 4.4879407828044116 0.7681645157232077 1.4229483444337965
H 1.9549943938765715 -1.745422588771589 0.14733794665599123
H 1.223096154274304 0.4678458378338929 -1.6752111166359898
H -1.214565112796102 -2.71190741890142 -2.14239404743552
H -0.6013849562515385 -3.432476925976864 -0.46733910399509776
H -4.030343755732737 0.7013143990514629 -1.3833192591994397
H -3.8361761408435653 -2.102463060379937 -0.2174694644641391
H -4.666311387453776 -1.031746095590992 0.9873727082406258
H -5.36712035881283 -1.3083329832214226 -0.6423057839983216
H -1.0796232589789572 0.964070614693938 2.5237667555384085
H -3.0532735934091306 3.9160874743273846 1.2171317236954944
H -1.2111003487983145 4.3666333349686415 0.8736176388765785
