16

C 2.6184472603053783 0.18750865050290474 -0.017744244825229277
C 1.3533347386560617 0.2339137024298854 -0.48374957106836597
C 0.3302138032201753 -0.6375908088880285 0.15425950416891923
C -0.33560231869786666 0.07649709965893839 1.2687900442265767
C -1.356033551133908 0.7745729874765072 0.7930681100859828
C -1.4717532154089055 0.5954398306428051 -0.683840847743457
C -0.8079011699561668 -0.7816117357444019 -0.8357074231938459
H 2.8950346984962936 -0.4560904968353095 0.7913499018734443
H 3.386738528463392 0.808163108695727 -0.45911949451990064
H 0.745631855263079 -1.6161563844709388 0.4598456400458696
H -0.03989561879428685 0.03847871976786618 2.311829664387591
H -2.0208019863402953 1.3941451664523024 1.391218927526349
H -0.813431717721889 1.2993081548324554 -1.236792259076479
H -2.505651481661491 0.5856439758910219 -1.0385957783138495
H -1.5111163195756916 -1.5925426572466874 -0.5435579402682554
H -0.467213505113958 -0.9096793131650434 -1.871254233305402
