22

C -3.4199230089988695 2.134678425953185 -0.693868877935163
C -2.6532463689982744 1.0934545697667304 -0.9339164965333959
C -2.0373807096912855 0.24199393441551606 0.09751137417536887
C -0.5358277674254407 -0.008365199407550651 -0.008639848226278838
C 0.580467254252034 0.6582223060835756 0.2637647119040324
C 1.8965962753811312 0.11713528409881034 0.038199535304437184
C 2.977222669260993 0.8225539583389716 0.3266668103584668
C 4.336482759157454 0.2905536169186548 0.10476298148351298
C -1.4414574214455893 -1.0512141552149763 -0.4364833976985766
C -1.749620414775054 -2.251661625204678 0.3952250863611811
H -3.8243552395453064 2.695579654099299 -1.5138468779697798
H -3.637533157719375 2.4186353707142705 0.31719909583336203
H -2.4190199534068277 0.24830435952311097 1.1233002203853133
H 2.0278007498082866 -0.8791457517273487 -0.37253008211449745
H 2.885573622554017 1.8253037580415288 0.7399882850343528
H 4.382674238528935 -0.7990839938325798 0.1799775457194602
H 4.742488656735977 0.6398361642454818 -0.8891500656604979
H 5.046948488832149 0.7430228367967406 0.8543512547365585
H -1.4746008853733699 -1.233758570250198 -1.5343161213878271
H -2.769307815409263 -2.1043142095112812 0.8426096071211503
H -1.067727865118763 -2.416779816916978 1.2347493291967702
H -1.8462541066033473 -3.184950916930268 -0.224901930947109
