22

C 4.248065083046538 -0.30596070078808757 -0.05174416300517832
C 2.925711647719904 -0.13509196641806703 0.04240755910408835
C 2.138661161185176 0.36569250530322184 -1.1100427114630174
C 0.9331052349494495 -0.42284493554984737 -1.2439656836116222
C -0.031659194619365914 -0.14635344961398433 -0.38889892495301553
C -0.9222745372996691 0.2544796755538101 0.4900179013378214
C -0.8487210008584114 -0.45219653548880573 1.760168035538433
C -1.792953595359451 1.2961898604197208 0.061733341466552606
C -3.0404240529661353 0.9880494175017472 -0.26032829136446584
C -3.5471592079850445 -0.4064842356038123 -0.18561267995950909
H 4.812178695837321 -0.09785043510961082 -0.9428331907016863
H 4.754740424133427 -0.6734766638671856 0.8268429540339173
H 1.8738545791492505 1.4326183924155154 -0.8992016465982379
H 2.706184803603592 0.3689250022615915 -2.05912178609256
H 0.658765599498291 -1.1918629067478737 -1.8993214536890244
H -1.6551481371266525 -0.15759613983578824 2.4549556393953393
H -0.7988694999564848 -1.5481537631954265 1.596920656145046
H 0.11350371744896981 -0.17958297576695784 2.2576359851334566
H -1.5365386274624873 2.3504125253097374 -0.03250244670067745
H -3.214405126754145 -0.9089099660941896 0.7673398732776516
H -3.1206345421823105 -1.0428444673557868 -0.9990735044816679
H -4.655983424001764 -0.4027580301675425 -0.1853754628116398
