18

C 3.032862487254918 0.4873995976936677 -0.32949993280218065
C 1.9593495624531325 1.0840385313128897 0.11074684819843171
C 0.6867768777498057 0.4377456613758884 0.3703471787704874
C 0.5003309227150137 -0.8588740379224583 0.17549051458320933
C -0.8671776441452811 -1.377175820853009 0.4886320331008739
C -1.912985827973516 -0.5171508639628655 -0.19801138562655723
C -1.7398804121508193 0.9328751407525204 0.16473083791458554
C -0.4539029192220122 1.2282949939538208 0.8684904388689734
H 3.02685843481423 -0.5548367554394418 -0.5296403948522493
H 3.9306104613097292 1.0521822872716313 -0.49154650754348583
H 1.2823372165388975 -1.5129445267744426 -0.18776082170064023
H -0.9920652614767577 -2.419188962168473 0.21690145317543671
H -1.0774151029126162 -1.293849806975694 1.5829433413405052
H -1.930189048318012 -0.673746054529084 -1.2884464357937127
H -2.897126128679598 -0.83305547217601 0.21372570445847605
H -1.7540644276237523 1.52237079445111 -0.7746566318800606
H -0.5874975406518141 0.9911249313028302 1.9432089679198907
H -0.2068216496813071 2.3047903626871005 0.8095820888229804
