38

C 4.0406928138718525 2.1380360516995705 1.5305392980661585
C 4.026090472531533 1.6202003613842375 0.3403703922221271
C 3.100955881691257 2.017975905284774 -0.7550553838779418
C 2.7609207489499425 0.8440012208914776 -1.5311384079093981
C 1.7567414703300142 0.14851460954706328 -1.0573657786139634
C 0.7533707586680066 -0.49543573285287884 -0.48565061764030826
C 1.2506877149879956 -1.4654029623207891 0.4436350782998263
C 0.4319550333450714 -2.2438911515142985 1.1385243164711905
C -0.5900369902351636 -2.8044681716494044 0.57716441753826
C -0.8490032676410544 -4.189126853871819 1.04283796827529
C -1.4735168758912431 -2.2520328062774073 -0.41557930741832416
C -2.6204720184362555 -2.9011815722876078 -0.5308532060278602
C -1.3947232037859139 -1.1135928715273424 -1.348868572151808
C -0.5013586473248312 0.0015550416731013926 -0.9930801691630382
C -1.1195626306870559 1.0971299741777063 -0.2487932196405307
C -1.9450400927338956 0.8716066532117073 0.9667644466010397
C -0.9568204191808366 2.346835268452889 -0.6467304639317434
C -1.5540900458185654 3.5123030277798066 0.05829870825816192
H 3.3526667036279165 2.9186722059509127 1.8007740954374618
H 4.743227719004047 1.793212798693909 2.2667031852874038
H 3.596634268964847 2.757177910867712 -1.4291992373094558
H 2.186521552263498 2.5177540656442496 -0.353185537510405
H 3.1525197509244074 0.4219587975985907 -2.407530173753114
H 2.2962583750399896 -1.5898233266481765 0.6039152549160214
H -1.68064852513568 -4.271877791758459 1.7461748904636458
H 0.05834782848805937 -4.645411701890245 1.5057826207263194
H -1.0964074442857212 -4.862106922407455 0.17955684708835384
H -2.806417132795255 -3.753326595881514 0.09191415063583175
H -3.403768362881355 -2.6207156082089886 -1.2311527052758446
H -2.4074269594377355 -0.7101623289725616 -1.5657997213899193
H -1.0441877276310652 -1.5412408310271888 -2.334113070662865
H -1.6581825983564444 -0.06738300456253804 1.4750151944812089
H -3.032799909577694 0.8591965319954494 0.6831147273250595
H -1.8378826440785367 1.7272002045047248 1.666142205132211
H -0.36484145672013524 2.5580977904449287 -1.5249584762102166
H -1.7414436412973493 4.362759110596942 -0.6270636428464498
H -2.5438709871878618 3.2245798985711795 0.4702114084188473
H -0.8850895115686633 3.7884128046877543 0.8986784856885472
