44

C 6.440448643193879 1.5994395825520575 -1.794045653021798
C 5.475761367565455 0.7014155502808632 -1.7897514835156352
C 5.439023005772872 -0.33861109390216815 -0.754922093793651
C 4.872512532388639 0.1989020767872366 0.46794331844047493
C 3.704039018130855 0.789571271519761 0.348302250905531
C 2.5816281784623416 1.353927884390508 0.12127438778841765
C 2.3884711113757295 2.70986110002853 -0.23082164158023957
C 1.0769395971574611 2.8636589423532386 -0.37286158057674657
C 0.40916900991646166 1.5673193822530225 -0.10373701144605475
C 1.318593176789367 0.6567752265945475 0.1943994887405387
C 0.9080596188587162 -0.7341808415103254 0.5073728169494052
C -0.5434066978865411 -0.9333691522863589 0.44262233845418064
C -1.2197871370920086 -2.041051544324328 0.664554945423134
C -0.6417124168890246 -3.373451046889598 1.0410417485898835
C -1.6881867544460285 -4.406311390429291 1.1150664317500032
C -2.267057196249657 -4.916932001409093 0.03724687221205052
C -2.6202267348567214 -1.7828162969000954 0.49013231664800067
C -2.832807525705557 -0.4739834499901846 0.14824567664395544
C -4.129221180501919 0.045218942458243344 -0.0828246699645008
C -4.7875747512176865 1.0835533529972785 -0.39256968369724726
C -4.453861995551723 2.4318992999496696 -0.7011487591862449
C -5.478412057653018 3.283079864859837 -0.9933023314609412
C -1.5102732550279796 0.10974226663354684 0.10735403941163171
C -1.0304057726129259 1.31575708006182 -0.1546960892534701
H 6.493971936343193 2.374841385924043 -2.540663530147029
H 7.201391484215214 1.5643919889104332 -1.0327190005981721
H 6.502875331424929 -0.6657826356347895 -0.5779225908176165
H 4.903796703060644 -1.258162560776549 -1.0638602634786003
H 5.224643284901589 0.2080580847437643 1.459029659593984
H 3.0976766441130468 3.536420600433703 -0.3799837365180604
H 0.5887337539081154 3.7921422466234653 -0.642145302490301
H 1.3820183465792453 -1.4694416389297544 -0.19325933523077227
H 1.2471332623534754 -0.9222622778952969 1.566393613194224
H 0.1762787510000697 -3.625988607638987 0.3269544739074937
H -1.986923279651548 -4.7538506096404305 2.1069539566193964
H -1.9492341773907396 -4.552219021097565 -0.9253344012747549
H -3.0282809209226613 -5.670076293540271 0.12481582175126
H -3.3781549638130763 -2.55360035417943 0.6219324143920367
H -4.941041828517055 -0.8193419678132982 0.06790301701989905
H -5.964133990917316 0.9102388120627569 -0.4422257122534864
H -3.4954627462893417 2.8908411249193207 -0.7395417647271871
H -6.482365395296019 2.913013808508424 -0.9805219584620888
H -5.27627291343826 4.3032202144985705 -1.2307245001162759
H -1.7283610656535102 2.088142694406412 -0.4018565427783591
