14

C 1.8423489808115112 -0.41058792202305183 1.8345491936137097
C 0.9979043393524927 -1.0627265410077784 1.0750048706087605
C 0.08599675046507005 -0.43306885808023127 0.12759127777905907
C 0.15155976014975742 1.051488782097681 0.049924631537907396
C -0.7252582247936747 -1.1650088622008 -0.5920788827105486
C -1.6783889450744436 -0.6172557982352993 -1.5718026640614098
H 1.8908170766836807 0.6571703783579315 1.7799152831985634
H 2.4730177989798507 -0.9636004943128207 2.500830497793649
H -0.5456917059673946 1.4883275654803783 -0.6573153341373728
H -0.002501391080607545 1.4167019785238324 1.105374005951175
H 1.2004167687033986 1.37950740598824 -0.19479546069369746
H -2.028780273999513 -1.3969602142895847 -2.265877801557976
H -2.5269577605620728 -0.14415172594620998 -1.0659070448131758
H -1.134483173838748 0.2001643055869341 -2.1254125725696036
