51

C 3.8981775460504178 4.272533744273511 0.5068659780428988
C 4.654848002932496 3.323218098498249 0.9758263344208844
C 4.938080444984169 2.0562338921346512 0.24273359363711317
C 4.070173555838895 1.9148993328987185 -0.9383214043609153
C 4.46631813868929 1.7962285017468669 -2.1904788853091324
C 3.482001424661118 1.661252575087804 -3.3327380038717673
C 2.136538741542731 1.7108359778482165 -2.89133806487935
C 1.1923216793055462 1.1588589104841471 -2.309704591885319
C 1.25338388974764 -0.18024343322387806 -1.7167824599230526
C 2.25276006143761 -0.9989113143159519 -1.7935428574446215
C 2.3034042221411544 -2.319782280127661 -1.1642468085530469
C 3.4772264739185927 -3.2200417560748944 -1.3685521519946746
C 1.2670446416960288 -2.6725370552477914 -0.4335771063160247
C 0.09138496135561167 -1.7865177720423127 -0.2131870632919042
C -0.5867745090371995 -1.9515462385352165 0.8620713688543781
C -1.7813861083674254 -1.3008818553408916 1.4040527607323734
C -2.2213361429409515 -1.550399108874231 2.522668855307024
C -2.56483370255985 -0.35016618872841204 0.5435999421882692
C -4.027265955245276 -0.4222614742603117 0.7968615360353022
C -4.772442008801148 -1.2049466242468851 1.5093851308336124
C -6.216367184380569 -0.8221587089912114 1.4160532711427034
C -6.856659147234947 -0.6353832301627412 2.7464113938569747
C -6.174311853085569 0.33041629844857057 0.5415002381839443
C -4.9299449466969225 0.5872435164866481 0.16026166097032368
C -0.07677693604079092 -0.6644659176254842 -1.1319037335063227
H 3.716628205490756 5.175524159999575 1.0770258708746103
H 3.384965866864656 4.258020399618144 -0.46387944667165154
H 5.997031530406817 1.9085514966371562 0.08532445377592472
H 4.622301077435173 1.2277966842119674 0.9533938547621871
H 2.978801896524594 1.9014210412106016 -0.7683858283683197
H 5.502828611423558 1.7917776581488818 -2.4223332113011673
H 3.77901871134861 0.8131092168247103 -3.9980761254069184
H 3.680819529002991 2.5710469312679987 -3.9900135779480213
H 0.225758296872502 1.7195787319581592 -2.2324124602573514
H 3.130995828723692 -0.717527939495326 -2.3638634059512973
H 3.476592694592076 -3.500055218322318 -2.4685042540065427
H 3.3908487722050054 -4.136649234008023 -0.7503033265043058
H 4.42202463614876 -2.665005044968222 -1.2203505007188225
H -0.19365549054942865 -2.771374820787344 1.542863195686394
H -2.840389884329121 -1.519041635000218 3.3859759243783185
H -1.4434391300083744 -2.4458599947307618 2.974482982520257
H -2.2780848101634303 0.6865613107059616 0.7109891892291125
H -2.457936744995263 -0.7077716383061367 -0.514912068775383
H -4.499243676637367 -2.0683336373717505 2.1029191709690913
H -6.198155060629313 -1.115055066434208 3.5298189445415047
H -7.826461158526227 -1.192103636157495 2.8252461949340812
H -6.952873912621094 0.4344694385907083 3.0288110589745814
H -7.063921812517099 0.8905771498804834 0.24309108930988538
H -4.663754978909605 1.3952549916233095 -0.4919318228925366
H -0.7498754357738865 -0.8861170705757954 -1.9559492094201287
H -0.41638885131555264 0.2197278362232512 -0.5676745612165257
