16

C 1.9421764778031516 1.2091095351335113 -0.6082725993740971
C 1.5187938891426809 -0.02717863523253488 -0.6500845465093811
C 0.3149385000012269 -0.547263788601835 0.018157204023998372
C 0.4212826942134721 -0.7224269768879279 1.5186713639334013
C -0.6071317572379513 -1.3899853345231257 -0.7786653238735827
C -1.0093498318286516 0.04054753899115378 -0.40437549581373416
C -1.9088113645004399 1.0111873598136014 -0.4619906571169354
H 2.8359117646516405 1.5068270123098122 -1.1276054509094713
H 1.3951643536346117 1.9483209397635792 -0.0482281899321627
H -0.5363412922522953 -1.1784087750226782 1.861927933843061
H 1.2838414505157516 -1.3184811285643832 1.82423374787055
H 0.4554657502146318 0.31890759184039663 1.9487563030322124
H -0.4112798372525937 -1.4598771971480469 -1.856736651471583
H -1.187126488933222 -2.1766555388518234 -0.2750222993618616
H -1.678501615432149 1.9432498511725769 0.02668595943478291
H -2.8290326927397915 0.8421275458076867 -0.9874512977752218
