18

C 2.8184322083752655 -1.226688040032454 0.9192007466337293
C 2.3347150571511586 -0.7393800904224633 -0.2044173100915751
C 2.3020808411713904 0.7523441962310754 -0.34016357891728416
C 1.2761889282944174 1.3406979399923262 0.5055441359273752
C 0.2551193028032921 0.5535335010322286 0.8038108069366445
C -0.7484449313450471 -0.2676019647654222 0.9685673118964644
C -1.7684447768303635 -0.22554141276345238 -0.008574284160905683
C -2.660834664415814 -0.1840561135046884 -0.8349739940929318
C -3.7504850808934784 -0.13718194480374948 -1.813378371591279
H 2.842320772801275 -2.321185045991106 1.0186613708160837
H 3.190033318000409 -0.6078888982796016 1.7414493812588254
H 2.18440982945243 0.977010882157069 -1.4187908475583177
H 3.3281515328538287 1.1000421214338685 -0.07103500429405024
H 1.1932653826715103 2.300862176056395 0.9327674484384152
H -0.6695262436009112 -0.8746422218494752 1.8298199642816837
H -4.480715311069457 0.6137217214079141 -1.5035121815307129
H -4.298522486391541 -1.1112830395749997 -1.8747688794759736
H -3.3477436790201405 0.05723623367637102 -2.849534569099013
