32

C -0.6474941489946844 2.625619558928517 3.9053078136073407
C -0.17709901836326022 1.610940516648342 3.1879532819336376
C -0.5071138886150782 0.2793198102968908 3.608996315488394
C -1.181652498337546 -0.43600129814431315 2.748330902794961
C -1.785111359257492 -1.1167986268293462 1.8082358436944415
C -0.9269984022759471 -1.810592342456838 0.8966884456615906
C -0.8047623740011065 -3.229489723680143 0.9180452223381765
C -1.2566043848115547 -3.877310129033655 -0.13461418827054603
C -1.7324830756368066 -4.4351409221270925 -1.2138368765870282
C -0.23761299806492273 -1.1053076777072501 0.019726076438718272
C 0.6902845460627856 -1.6215463918838635 -0.9927482320309384
C 1.1685453125519405 -0.5910713120033058 -1.6632407201071195
C 0.6073039913236157 0.654327818470948 -1.1578180752700575
C 0.9154525548617163 1.994615835281544 -1.6674377707071284
C 1.7654464193785246 2.1495936176936823 -2.6668838580448577
C 2.097637729837772 3.4840630313026697 -3.203607574529513
C -0.21890877671818748 0.35251539274097443 -0.16899789504986676
H -1.2677980582892576 2.482382786383167 4.791667606358025
H -0.4393029440882683 3.653013705425003 3.647223712687741
H -0.2869286179053416 -0.21578900386974828 4.511654144839723
H -2.837585558409955 -1.0618266146119493 1.8472349658638925
H -0.3989632441218622 -3.8647620017013655 1.6623330960830836
H -1.0248770549518404 -4.559018803178414 -2.0049119413577134
H -2.759838456945954 -4.696218791462446 -1.1763577690531888
H 0.9090057097885365 -2.6773904063925413 -1.1243153995626352
H 1.877478993602082 -0.670814927302851 -2.4728760995824195
H 0.46235846984387446 2.8664706272517546 -1.2441596226999039
H 2.2348074344754694 1.2864039181184392 -3.1099402828852623
H 2.337109707494369 3.386338563863925 -4.269001294311341
H 1.2523222882472707 4.206865812176994 -3.057972645284816
H 2.9619202791034254 3.90302956394485 -2.6355103744410093
H -0.7885385767848664 1.0335784138448494 0.4108331919835805
