24

C 1.1955828984755221 2.840722639048867 -0.39308593555509896
C 1.5880888134003326 1.6049112886042052 -0.6719644502169799
C 0.6556236044318512 0.4808910587474856 -0.7023516398073661
C -0.4927126675353579 0.7009726630611648 0.27356391239031763
C -1.5994100623820167 -0.25982892455236706 -0.02818381972999154
C -2.9165883848660523 0.17775000202629904 0.5053920268480887
C -1.5264700243376996 -1.4011088680888408 -0.6884174687203481
C -0.42429170425855045 -2.1136413407244232 -1.3302516761427277
C 0.8644721419421578 -1.9165455824925002 -1.166173647680245
C 1.1877111143526873 -0.846129041592424 -0.43564318693079634
C 2.0832095846899934 -1.1103771275012175 0.6262627942818074
C 2.5148289071310646 -0.20908203407552706 1.466078149217697
H 0.13766979970611437 3.013491903262552 -0.18043323823126942
H 1.8567616572494408 3.687154313702775 -0.363105989709077
H 0.1431168871966301 0.5236208865025676 -1.7214654114801655
H -0.18601413368251954 0.6689377518947924 1.3179855069547632
H -3.1686160749157595 -0.3218542011636735 1.4679333964537709
H -3.723110250078393 -0.1359796785345742 -0.22027394114949939
H -2.9873832849046207 1.2821047183891363 0.5647980018799
H -2.475883180578084 -1.915242680158202 -0.7728089444017927
H -0.6274742575929347 -2.90642631532718 -2.0323043179276605
H 2.473455060352269 -2.1406459038714307 0.7971670117995048
H 3.2216451917131708 -0.5195539179405758 2.269536653017419
H 2.2057883644907337 0.8158583907830599 1.417746214839767
