20

C -1.7009650972347685 2.241332189112376 -0.693565020006971
C -0.8186144622358476 1.3936259937847992 -1.214164032457129
C 0.09170257022664213 0.6372979360259288 -0.2971191145234207
C 1.2026968432264622 0.003999864856082905 -0.9991028730434087
C 2.2886181777969106 -0.2541411075066826 -0.3156025259587111
C 3.2998697789939575 -0.48620291027503926 0.48142699016632023
C -0.7024516755727 -0.44217340012769624 0.3511493286064332
C -0.8354959485525356 -0.42015942851416593 1.6705326371585323
C -1.333803023928824 -1.5244871068514827 -0.47180443585956827
H -2.364325677370842 2.7964000965575235 -1.3134869944350134
H -1.7640807411819908 2.3869657443757917 0.3889319423586896
H 0.4185689264248906 1.3640701130208437 0.4687305270421945
H 1.2726794293729091 -0.2935255568452331 -2.0211374762513294
H 3.296470791579273 -1.4207034808635974 0.9771509193015369
H 4.009797147225335 0.3150937589160137 0.5286469239790613
H -1.4210177102642572 -1.2193791289778668 2.128571723609849
H -0.3871455589313783 0.3508618051907401 2.2690018725763763
H -1.7685248267089912 -1.1245652534563702 -1.4057895334503248
H -0.6225487803148039 -2.3546936263165827 -0.6766933995649781
H -2.1614301625496437 -1.9496165021061826 0.14432254075243311
