25

C -3.794250676706188 2.154740850728866 0.029411738950778758
C -2.674131914476215 1.4866544637664554 -0.23022790017213393
C -2.16827240430985 0.48100830242971093 0.7437984130690438
C -1.51359522320819 -0.6628446073280387 0.05604232835921816
C -1.8917970287146233 -1.927978692517304 0.1426705699905775
C -1.0343630863399917 -2.772215879646702 -0.6525980989584985
C -0.11928772705591956 -2.0089223663474702 -1.2328586443477567
C -0.3393143627835811 -0.5967247509605714 -0.8359167291616758
C 0.8862341512465802 -0.14009834001894933 -0.1331242574804151
C 1.651225811738261 0.7830340905845983 -0.6923948090710778
C 2.8843529636652896 1.3184246446278038 -0.10397194141881452
C 4.102477018811453 0.4815054576088715 -0.4425422864146755
H -4.200328347982871 2.883756280346535 -0.6311607213631373
H -4.344292873575722 1.9642373584582298 0.9609202256859476
H -3.0251452938170247 0.1370251560529749 1.3396534504496966
H -1.4458126635694024 0.9444824693662285 1.4592375674759548
H -2.7447537914028994 -2.270885785894349 0.7429557767058177
H -1.166838918435288 -3.8491667995944185 -0.7244994114112085
H 0.6439915355860087 -2.422809782967119 -1.886346323306772
H 1.1766755405644245 -0.5396703332715944 0.827561609726836
H 3.0463893622009115 2.35116542468597 -0.449306586921654
H 2.834357514558099 1.3601170012380641 1.0053967060839928
H 4.0276936330588695 0.02572976764452765 -1.4598518265154925
H 5.007875498300662 1.1242339773250245 -0.4717009302627747
H 4.2009112826471995 -0.30479790631734693 0.33895651127811915
