8

C 1.4060732728197134 -0.018935483663203613 -0.047516447972642255
C 0.28108396527091956 0.4957921087465353 0.3759511997017162
C -1.0734129267174233 0.08733691737354675 -0.043781069405798116
H 2.326790804300607 0.35856376099631215 0.3280512868584614
H 1.3782805601632975 -0.8071750201149093 -0.7611667382764398
H -1.0909369574942713 -0.4114256312911976 -1.0299826061985138
H -1.4297123542517025 -0.6479198086544664 0.7091309051159524
H -1.7981663640914987 0.9437631566070289 0.011275142466688436
