21

C 3.4808380951722144 0.8593196411749318 0.291590813955729
C 3.5569941951023694 -0.4566920477643623 0.2983981343844784
C 2.442032467350114 -1.3794552249114327 0.05116105655454507
C 1.1967895579318455 -0.6907200300523697 -0.31895890147366895
C 0.07859216357014416 -0.783156827839156 0.3733385795203845
C -1.1341347367838952 -0.08519285821372652 -0.0263287664382518
C -1.2926073855452245 0.7117157618537764 -1.0957105004153285
C -2.650330157228314 1.2164641361916295 -1.144395728373529
C -3.3160379836946903 0.7329641810727161 -0.11467736758188232
C -2.4317900676192683 -0.12457518547507183 0.6792134627852204
H 4.417937923424092 1.3966403941774264 0.4976480529409745
H 2.5905318088449087 1.4354269763773613 0.1037683985945826
H 2.2389057360609663 -1.9695095031685568 0.9909983231286256
H 2.6968580897421703 -2.1649404307286 -0.7103055225621828
H 1.1959572784494152 -0.07218131219425498 -1.2101082738084348
H 0.07418867613655913 -1.3946026986367543 1.2568254692642153
H -0.49379875746068824 0.9280196478355688 -1.8068764341744932
H -3.073371393548743 1.8727161015195266 -1.8787491226836532
H -4.350990933002393 0.9349880603382457 0.11159367714648337
H -2.875567519352006 -1.1598244097593007 0.6637425122680967
H -2.3509970575495354 0.1925956282024188 1.7401428225508384
