21

C 4.165526001352414 -0.4360670297484206 0.08015794678065448
C 3.031259721859189 -0.0021356774584462774 -0.4204812083527923
C 1.7986262864328464 -0.23843261584382933 0.3194489804493264
C 0.6533811852220339 0.19273110662285495 -0.17338639367296396
C -0.5842626847121346 -0.06394014905008744 0.6047699886452951
C -0.6516252482126864 -1.50758603215276 0.8956238122383616
C -1.7686393753379321 -1.9615796293123955 0.3644094135778805
C -2.4903832559568277 -0.8623829361070515 -0.2963077947010627
C -1.8055695848014846 0.2608746376344863 -0.1632623871447474
C -2.150588261712622 1.5767382316666103 -0.6593056785692246
C -1.3778050603550773 2.6199944485978923 -0.45803715034326936
H 4.157203804970308 -0.9547497354434061 1.0230872209240458
H 5.108590805734647 -0.28821541151205315 -0.42621341245888866
H 1.8035431416967533 -0.7645853258534979 1.2725755805189285
H 0.641849767932266 0.7172085635381579 -1.1217924094352187
H 0.10128934225920184 -2.051545116935017 1.4474628645483902
H -2.071025317438086 -3.003273669874553 0.4300706571356369
H -3.4367266906842926 -1.0103388596127088 -0.8003230178460666
H -3.0653094048141774 1.6976394450587566 -1.206636376492044
H -1.6004576764217875 3.6137497892995345 -0.8111131432464871
H -0.45887749701267355 2.465895966486046 0.09925250744415172
