15

C 2.9512733030962455 0.6184461027288082 -0.06513486258778588
C 2.168384994924247 -0.2504214706233499 -0.6701937939267777
C 0.745231181196851 -0.3836410587331881 -0.499217171862917
C 0.08199409525759271 0.39394278325217064 0.3182956712793035
C -1.3880150080382465 0.29112640755881203 0.5254736266123715
C -2.009043115156924 -0.7898621061848379 -0.29868576071629815
H 4.0157013725542265 0.5445736836123275 -0.34549962014008334
H 2.6444488924193426 1.3574982553783483 0.6464197615659774
H 0.21332961684868443 -1.1328359815354472 -1.049879075672223
H 0.6350111331554551 1.1439576097111555 0.8654068162175886
H -1.8172336744138091 1.261595197062038 0.17884007387689588
H -1.574674639506135 0.1728202281265266 1.5920987252047347
H -2.092550545429143 -0.5130323719226312 -1.3609432291242696
H -1.519593864990088 -1.7773288170254615 -0.1880006126917003
H -3.054263741918273 -0.936838461405287 0.08937884061680831
