33

C -4.2896190871272255 1.0735436729075454 -0.5289647722980284
C -3.363946868942542 0.17362623165963104 -0.8076652980563275
C -2.0527155773214605 0.1785095972023942 -0.04967967462468373
C -1.4232199779405252 1.506616051249877 -0.4049871121983456
C -0.04093685598931816 1.679616234261526 0.06542693029220016
C 0.7274511758597788 0.37850444348736756 0.13892402446842733
C 2.121415511831438 0.5595443372610713 0.5791065277764444
C 2.906700096614888 -0.6747411392551289 0.6658281486465502
C 3.986983331121668 -0.7801663179348146 -0.07701274398756491
C 4.416584326651169 0.3071153225225653 -0.9837525989465322
C 0.16964362756824733 -0.7587720266966211 -0.1657541896641001
C -1.2281702758280035 -0.9272363571260854 -0.6055329473414005
C -1.7936349951238346 -2.2404507585263396 -0.16514776877179874
C -2.855566632016787 -2.371538898178127 0.6078879853785543
H -4.091297577761164 1.8053290635805315 0.2442478777928305
H -5.243261189714691 1.1267409368218901 -1.0291205836908734
H -2.2061144553130627 0.1691289466463964 1.0302232528255466
H -2.0630734424844497 2.3012575584840906 0.08053086989221675
H -1.525625782148911 1.6453063403102346 -1.4986951455274198
H 0.5471911939200865 2.3017661976571366 -0.6713913963538177
H 0.06901222928235402 2.2218177531044776 1.0330349546088058
H 2.1381844374206582 1.0421849087008286 1.5984213535682987
H 2.6283192637363095 1.2717601695149912 -0.09514536641572821
H 2.6603102253323883 -1.5185446591648872 1.3051087780454995
H 4.576710804968457 -1.6759455477108312 -0.028607593779903358
H 3.6121758520484186 0.5514041737921909 -1.7299773087461543
H 5.286454018026855 -0.009146657073863189 -1.5928459901476857
H 4.709105835369268 1.2200339718420392 -0.42582806886104574
H 0.7707166130873967 -1.6543876747705308 -0.09351415390772103
H -1.272788453004514 -0.8859323527822559 -1.7038455449244903
H -1.3070603625666444 -3.1805058886662567 -0.49622356930143136
H -3.3689039309780946 -1.4915000582195528 0.9602046478192208
H -3.2010230785781735 -3.344937574901611 0.8804324040709395
