12

C -2.246304164546428 0.4195907331171624 0.5195395703226248
C -1.1571553226452476 -0.1829608057475682 0.09780672628672567
C -0.40945848706318966 0.2572774840982961 -1.0894234661251603
C 0.808604472492352 1.062764134951486 -0.723915181890383
C 1.762544822774694 0.5564659001135415 0.04188867018655118
C 2.394941245026775 -0.248331382662451 0.8471491129348885
H -2.8241188320802553 0.14137322979716893 1.371834218094523
H -2.5989061077770605 1.2831317395467787 -0.04665853616893516
H -0.021732893597140274 -0.6204873918297981 -1.663030824295766
H -1.0313663271034172 0.9203101739196149 -1.7120944113505678
H 2.2257271943282726 -0.2211778975063685 1.9061712026402837
H 3.0972244001906923 -0.9561445134841157 0.4507329193651939
