19

C -2.2072510293176046 1.468732260264059 0.7436480254202618
C -1.6206629610951029 0.6545358719138421 -0.13352958341605145
C -1.9674473694176497 -0.7810892807485238 -0.1972130134808574
C -0.7079095746145915 -1.6062984563143616 -0.3577000375151662
C 0.18212157985876024 -1.3643915145008974 0.8008812602111838
C 1.258711902251171 -0.5875110990932078 0.7323214920954083
C 1.588957584730216 0.06052125101863337 -0.5324381128708983
C 2.5730330052862103 1.1759361234804337 -0.43491337184518547
H -1.9313640967938421 2.518091033032471 0.7661310998359689
H -2.9510607532860798 1.1387266528963396 1.4420972987185485
H -2.6234621919457157 -0.96862905771739 -1.0712603247750119
H -2.522350278174609 -1.046843966210354 0.7097470231145023
H -0.948606969466384 -2.6824447073550535 -0.4693090306819794
H -0.19808240815816172 -1.255035924954311 -1.2931625275456828
H 1.8340544100258367 -0.48945443662332205 1.6583088394938292
H 1.7400166536875386 -0.6148326897086402 -1.3851122254263313
H 2.0540653989556095 2.1181743784606524 -0.6646419426334231
H 3.3421645843895322 1.0298968899197638 -1.2100061982281556
H 3.105072513084802 1.2319166722399069 0.535341889399761
