13

C 1.3074687508439349 -0.2073545882297129 -2.592593049322883
C 1.3228108585286578 -0.6558270039678389 -1.3985645785910659
C 0.6065684647166117 -1.323911785464995 -0.4217989709879971
C -0.09891844985119752 -0.3670438704840804 0.446073570272432
C -0.7085883995348159 0.4521052646964549 1.2186037103460803
C -1.376036602037176 1.3908426254764992 2.094021254736492
H 2.24200961710433 0.32203767206162864 -2.9953039560382715
H 0.48981868588493627 -0.292323172497334 -3.2743448341925365
H 1.2317413171443532 -2.0198588923209613 0.2189826072035878
H -0.198228653128807 -2.061441677507937 -0.7854907085315177
H -1.965317731140106 2.06281083507748 1.4582377196484273
H -0.7102970810151397 1.852816529053913 2.831010991440572
H -2.143030778475984 0.8471480648275013 2.7432397957541026
