32

C -3.7193424379758704 1.7843808207707714 -1.5418584934487825
C -3.053643657633815 0.6566511871480561 -1.3312310406603365
C -2.8394279337480928 0.08714134656095922 0.02606162946801432
C -1.8353544391769137 -1.006943259430496 -0.01632731374953692
C -2.209268889694961 -2.2123841022764403 0.37632888310515294
C -2.4855775332968597 -3.292493855867728 1.011488416446264
C -2.568623627064401 -4.404991120923507 1.7133826533412184
C -0.47532781678347513 -0.7794994496402172 -0.4731056345372767
C 0.11403049613797567 -1.2913167051231544 -1.5408768680239224
C 1.4851245850376844 -0.8036573210170376 -1.6331225309917539
C 1.7370913628290492 0.028275334611697407 -0.5922072474204482
C 3.0154401250137775 0.6838101200917027 -0.3919426209575731
C 3.320614022062567 1.491713948567181 0.5842011310740988
C 4.682633371042752 2.100286891052634 0.6695086658860583
C 0.513330085692812 0.048676489928952786 0.13946208082343103
C 0.3174356823936344 0.7302739594715767 1.2230895440933016
C 0.05336347668008485 1.397408002292718 2.320844518233574
H -4.145921227855304 2.3571377101528967 -0.7412982714968076
H -3.8260546492345098 2.1237091268325257 -2.564873958690226
H -2.3938987883085145 0.903135168081697 0.6651812463716538
H -3.7526395826188876 -0.2396712093419759 0.5207471978071394
H -3.0599079100952333 -4.338814348406833 2.6627603657713306
H -2.138949326939763 -5.287759484914593 1.2805006200508264
H -0.3649221501107182 -1.9792063512748643 -2.2463032355351267
H 2.2137552071767312 -1.0446295863085844 -2.394844202917348
H 3.8166978889220613 0.489539191986777 -1.12867822757279
H 2.6120720391121686 1.7373227969471146 1.341063900743106
H 4.573657761175686 3.1703101154129247 0.88995691130931
H 5.273812444513554 1.6507987339855084 1.4923344510802818
H 5.203733240852424 2.0083609802911013 -0.30787059565074637
H -0.3337019335623464 2.3654521876994683 2.154909866081221
H 0.26977011546342133 0.8669826826376543 3.2082979067603095
