17

C 4.207323693134285 0.22326875693936016 0.192975126486531
C 2.9720055409238944 0.5131482586228503 -0.14342298597289466
C 1.8817004168747542 0.11145847937504111 0.6932855034662405
C 0.675350719434101 0.39450168468526337 0.2846327006333027
C -0.48642151954785723 0.6118750415571897 -0.29599532589479954
C -0.9857018578963612 -0.4194516225921505 -1.1553998757095276
C -2.260418242092257 -0.7461106021706034 -1.1563500103715632
C -3.1913467527158725 -0.03597547116723091 -0.2549181449576646
H 5.0021060040813525 0.5419762663989474 -0.46158783435057893
H 4.382827748228529 -0.3177019843754003 1.1024087687242894
H 1.8996084883621203 -0.40233435551332364 1.6307539417512598
H -0.9004366401219033 1.5472804566414076 -0.03938164461283078
H -0.281897336837368 -0.934905200327163 -1.8165452563563298
H -2.6008745864649154 -1.5204132975734908 -1.8099216531732452
H -2.906822719701231 1.0348785439054666 -0.15613424001154866
H -4.199353745882883 -0.10992886257235764 -0.6794007687714632
H -3.207649209778028 -0.4915660918354103 0.7619639892826241
