28

C 2.8768144769637325 1.8237907761176697 0.061303715063134194
C 1.6095579011769787 1.8275076604793805 -0.29825264707910315
C 0.8474498784065683 0.5456039182452821 -0.19890863558589847
C 1.5229295959578628 -0.5192844043607543 -0.9455255865655039
C 2.3636583570672762 -1.2741388030693306 -0.27560062329363144
C 3.1744880398837574 -1.9648564930449761 0.5033600568470342
C -0.5819293535941553 0.7020522546033582 -0.6668494645648939
C -1.3494107087638216 1.6810583605136549 0.10440050906849853
C -0.856970126236664 2.2500636008289803 1.1970139763548686
C -1.1932060565324236 -0.6496188105182225 -0.7800324118295289
C -1.2340702868276108 -1.4238315667678447 0.44552577251913333
C -2.470746212470024 -1.8567740282934155 0.6026828494280512
C -3.2985590964266724 -1.3949456288793893 -0.49919413845696786
C -2.5470497535059318 -0.6812731389093272 -1.318300897185561
H 3.496170093004275 2.725381281728406 0.015021959552081889
H 3.3625323381936356 0.9275152095010196 0.4190383924725018
H 0.779631069531753 0.2768375040922168 0.8784838486357776
H 1.4370412276875861 -0.7802639935070995 -1.9621547801583827
H 4.158775166660308 -1.580274435323497 0.5495259010592295
H 2.7256194021938307 -2.8003403627874657 0.9688519255100508
H -0.49259581622249476 1.1175199264254692 -1.713981001715785
H -2.3590845920294354 1.9676673919898344 -0.20928527099266986
H -1.4502036065047765 2.987543384595782 1.7670710394296947
H 0.11963009690954723 2.059437743620107 1.620494196911315
H -0.4529942475346772 -1.6609238832130466 1.166149522833942
H -2.87124152772811 -2.4749675801420303 1.4212050334157666
H -4.375448920349946 -1.6095581683406202 -0.6231315266639134
H -2.940787338910634 -0.22092771558411442 -2.228911715009023
