22

C -2.1340360119307364 -2.6078421969247616 0.042050948988868346
C -1.3285107474200148 -1.6609789146997331 0.4501615822920098
C -1.0864293423599376 -0.5238954936532823 -0.3951507563921346
C -2.133765627905322 0.24805318868639775 -0.6540550822394076
C -3.02433493507476 1.2241949305797768 -0.5684659605141035
C -2.942044479973038 2.2107562644573227 0.5534232665165031
C 0.193239029508739 -0.13723844519911121 -0.9871108043322142
C 1.257977403365952 0.13923612260543686 0.0716658210925402
C 2.530082229058632 0.5236179090671947 -0.517156935557079
C 3.6058098219132613 -0.04987984939843307 -0.03822539592318394
C 4.623426457784986 -0.6789008884272058 0.509747379762666
H -2.6105352568527627 -2.5420003868945766 -0.9100716759639778
H -2.3087826439119636 -3.4527927548741983 0.6796638893646837
H -2.3028238329205335 3.0681952557062635 0.233287414994782
H -2.590267703231981 1.7339648335527709 1.4851342987760965
H -3.9559858471097407 2.622062425895083 0.7921673605363903
H 0.5793280808760216 -1.040117183301473 -1.5471169172893249
H 0.10486737426466997 0.6573463979713612 -1.7251658712352114
H 0.8725963664766316 0.8258869502725074 0.8429236694135872
H 2.7271722017898834 1.2177701828247527 -1.2982771589830462
H 5.048543721420307 -0.18295871397859736 1.341258810782734
H 4.874473742230005 -1.5944796342672096 0.04238476869225515
