31

C -6.2299362796868705 1.636716810488885 0.040571183719262
C -6.274673949776639 0.3190100525415246 0.1752973830807649
C -5.385934552110896 -0.34471527849193934 1.0722974956892337
C -4.1213518597947205 -0.3436647786527642 0.740914479516223
C -2.903473044558017 -0.27442965099880307 0.31095967938379143
C -2.30450844630452 -1.2348700451456103 -0.5466533745681612
C -1.050587557921066 -0.7745736400702095 -0.7402620703959004
C -0.8502773629950631 0.4737993113776204 -0.00960314882345641
C 0.35378305992701015 1.2971466821773658 0.05167045911275299
C 1.4823335897425753 1.035245841350253 -0.5609056724679082
C 1.7847807257419765 -0.08118416306011461 -1.403263319046952
C 2.4907978904901404 -1.038661117549444 -0.837637889172586
C 3.2914689791204523 -1.8980646286018532 -0.23701976670418384
C 4.7116002368335845 -1.6389068310638741 -0.3554272860976779
C 5.092043133442507 -0.2260745330644936 -0.4246668201747082
C 5.832483736965656 0.3419836617487532 0.5176378104799214
C -1.9994481744751262 0.7733609254020999 0.635479698775599
H -6.897684955308935 2.1377321419610213 -0.633696959362143
H -5.531670785899057 2.2427702301456214 0.5952171027819807
H -5.562118323911512 -0.8504290726099527 1.9781698695252328
H -2.6950902836275645 -2.1455231580878165 -0.9837309639181042
H -0.33739623571789373 -1.3001512698021775 -1.3608042088628123
H 0.3202547191937849 2.215949814180405 0.6604071243703875
H 2.3088183858882125 1.75513892260688 -0.41855032038861556
H 1.5409194791826626 -0.2710349298973638 -2.4108090075839135
H 2.7622770015382834 -2.6666546219747658 0.25452016004100714
H 5.2533990288873715 -2.2931242280668784 -1.0659534397232624
H 4.76106119821314 0.3674661050014823 -1.2642554532478212
H 6.177355347888762 -0.24284411470602535 1.375872440921614
H 6.129790335705415 1.3838140605923477 0.49425569826927274
H -2.1490150366606637 1.644771502271908 1.2590545747894448
