19

C -3.3509033148270193 1.593689603528931 -0.133459839969948
C -2.320720055328571 0.994944478708482 0.463186371429429
C -2.023622996256281 -0.4368804124446519 0.2531407456506695
C -0.5735538715639638 -0.6324244495643506 0.004505885233647444
C 0.33701214139028607 0.36069380927580375 -0.024069367909494502
C 1.6265984189319962 -0.22877378727085934 -0.29274889017589056
C 2.8125006218521396 0.2926458322295736 -0.41747315091524007
C 3.8821528792411564 1.0244556736962442 -0.2150344220245734
C 1.455060031755285 -1.6243625239196022 -0.42544252526609894
C 0.14654756041904227 -1.872119401615929 -0.2495810827881198
H -3.994447798503197 1.0245197595923392 -0.7924154671863579
H -3.5470579100276924 2.6423626184285323 0.036581820268485915
H -2.3150245599084123 -1.035933054442031 1.1612837069931086
H -2.6512837139490504 -0.840388638471114 -0.5679362119543502
H 0.16224465072749014 1.419515156382146 0.12426687413018142
H 4.346154606734085 1.1462567430193147 0.7293273358571065
H 4.204722507293593 1.462144697789211 -1.0947859914547033
H 2.131297345716785 -2.4486805884831973 -0.6251129615580661
H -0.3276765436976814 -2.8416655164388454 -0.2868260028923917
