22

C 3.780621792877181 0.8546121823532608 -1.3363777429725652
C 2.5854988098724943 0.3649409828970138 -1.046549541019696
C 2.2189129925690425 -0.07884769328164119 0.28681903218891225
C 0.9989163066152961 -0.5505719394339631 0.4635075844998872
C 0.010462605443656656 -0.6363768808913869 -0.6496004253516661
C -0.5258632995865903 -2.015476756183928 -0.6114279452354267
C -1.608226270761826 -2.014436315805674 0.13590787026954237
C -1.9017328637135194 -0.6417818608554938 0.6664562625881478
C -1.1727143023193323 0.16685509558258543 -0.3312845985087412
C -1.5007459641988576 1.3221502050956064 -0.816500934241112
C -2.7438551541293084 1.9907847871239506 -0.37428032332967076
H 4.578195858308008 0.9667450964664132 -0.6199020758387883
H 3.9612949119847345 1.1591867409652798 -2.3574699288905405
H 2.925633288338272 -0.02018644489336483 1.0940992752109808
H 0.7198804714253785 -0.8822004029340116 1.4517101149489444
H 0.4761286574633057 -0.3792777232950534 -1.6214641188189347
H -0.06555169820582735 -2.871332099050652 -1.1352160024917215
H -2.2122015246901725 -2.8739623207801266 0.3474356151578451
H -1.4077712310759165 -0.5083773380941519 1.657603932624084
H -3.575283547258842 1.873743958019994 -1.0901585156881333
H -3.016606051461433 1.690294100656461 0.6592945910404568
H -2.5249937874956547 3.0835146263388724 -0.32258817525552574
