20

C 2.6745721073249493 0.16606327265823828 -0.39563112899608466
C 1.7462355139285557 0.8137415987284815 0.23282482367032792
C 0.5299521485175246 0.3695417543131504 0.8419395641606546
C 0.021290721533952568 -0.989355102732498 0.40435361904304656
C -1.3231218044643733 -0.9549287815774187 1.0886992657537564
C -1.7521254451910893 0.32098854350567235 1.0624661045135135
C -0.7183550981466719 1.121656223671035 0.3506094565912047
C -0.7414681038695582 0.698254174705058 -1.091173937081682
C -0.26539805296918595 -0.7617326406238174 -1.0443340078543308
H 3.5256096721329504 0.702848177598418 -0.7843667211611103
H 2.652559601449358 -0.899055480586344 -0.5598324634519344
H 0.6012700547243226 0.40719037290943105 1.9454153732356807
H 0.6308157792820122 -1.82199663724948 0.6648116456327994
H -1.8827092552186193 -1.7537565285424803 1.5307840259694128
H -2.6581725649388446 0.744165335919443 1.4613827470703487
H -0.7083856544634243 2.1664722363526536 0.5510647285087974
H -0.0023335504034469935 1.248661120100611 -1.7012359636830336
H -1.7639455510565054 0.7769599676956813 -1.4866222985718585
H -1.1212857384952102 -1.39979069831266 -1.3465049204593493
H 0.5549952203233546 -0.9559269085331578 -1.724649912890206
