13

C 1.8383984744325577 -1.416015302119499 0.43564480702400776
C 2.315460314668353 -0.22784550981312762 0.09303541385807479
C 1.5428740168321364 1.01857157954004 0.1876296777181811
C 0.5567392090220143 1.1662317302401966 -0.9330515576568019
C -0.5594271591823592 0.457954910764177 -0.8770700355371789
C -1.80351104815642 0.12097794042866174 -0.6901625452799413
C -3.0512293637681718 -0.01438799287704124 -0.3682196253146107
H 2.4165691420292044 -2.3236437840597524 0.36120844772469335
H 0.8267207745395894 -1.4714327793251198 0.8044470303466071
H 2.152491533167648 1.913360558006676 0.3162763373774365
H 0.8965789957230409 0.9378288544749771 1.109872297772873
H -3.833381400082031 0.42712329492980455 -0.9435726346285902
H -3.298283489226073 -0.588723500190201 0.503962386595171
