20

C 5.037342678050704 0.5028831806921972 -0.13714160570344316
C 3.796893190776674 0.13132771372047833 0.08477420856351404
C 2.836043163104479 0.0622980033440446 -0.9821373283227329
C 1.5976400713986008 -0.3050591688849808 -0.7808091444602492
C 1.0338578677525079 -0.68722910600085 0.5279803375697731
C -0.19799286725875626 -1.4296282174786774 0.30642028261360427
C -1.229118787667115 -0.7211547363931171 -0.08833871482942134
C -2.227016301272801 0.08004350785745663 -0.40178727648050566
C -2.951569424582686 0.6201017987295913 0.6995702867931223
C -4.270456321528276 0.4846566461661218 0.7057446622240937
C -5.526015972483498 0.22856478396287727 0.49608717186045564
H 5.73110626566806 0.5394912312228453 0.708143192775427
H 5.396392963549847 0.7719726991264775 -1.116102329105146
H 3.1292590765386916 0.31906848029369184 -1.9912568775240982
H 0.8749622761133882 0.2497108667355913 1.103668741500989
H 1.7996668815663932 -1.2984882052963505 1.0635861365281356
H -0.41011947089889006 -2.455627618947594 0.4109540826184818
H -2.3500668510916407 0.2118410316732812 -1.4395362488893382
H -6.132722581518161 0.8986213909828107 -0.07016174969841157
H -5.938085856217858 -0.668786660098226 0.9003421719657946
