23

C 5.375108221555386 -1.1181276513436478 0.38432305772677106
C 4.208222067293791 -1.1865759787169194 -0.2312521190800173
C 3.41600937820835 0.03136310852873882 -0.4558649714480397
C 2.0143032256942774 -0.24197175495515114 -0.8210486015694012
C 1.0009647244169828 0.19074807291505977 -0.08992567824906453
C -0.38243127312429426 -0.06338620259275105 -0.42566161686575626
C -1.3618312757948152 0.380620257801643 0.32169068629942954
C -2.7649313169721044 0.14051763468950304 0.00903925042727053
C -3.7215277596083127 0.594417346084385 0.7709544620051827
C -5.142475057716472 0.3473649420174869 0.4481759920156366
H 5.731906167022489 -0.15410727449211015 0.7167278630567149
H 6.008508083156403 -1.9701786927116827 0.5825243179945327
H 3.8729300295999116 0.6009848717613104 -1.289890482527194
H 3.4308034674438592 0.635062281387721 0.49462913922705093
H 1.8216895304724288 -0.8151936538710594 -1.7168957997724104
H 1.2320583350449317 0.7650691844666953 0.8058405456568009
H -0.6076760872584122 -0.6288922222477792 -1.307801571321716
H -1.1124675363351442 0.9480126952369391 1.2056769328000259
H -3.0075064352870244 -0.43570954039584814 -0.8892390621653135
H -3.4702162953785876 1.1601163720058445 1.6522011029825068
H -5.346770077167263 0.6736544021977177 -0.5838353471130145
H -5.82500821919701 0.8959213607419632 1.111609684585052
H -5.36966189606943 -0.749709558508007 0.5844358844709227
