47

C 1.596488543391055 0.8149404408519404 -2.1510144547842573
C 1.033031813158199 0.01614277951527793 -1.2965778710668097
C 1.869233177442582 -0.9098963158023172 -0.5354048420089229
C 2.626434510440766 -1.8742641596764078 -1.3927551668133218
C 3.4701213701868543 -2.8524501917116454 -0.677790545407557
C 2.696777835559537 -0.25379248899454654 0.5282317203555215
C 3.7198285836794023 0.7199290387101498 0.057832601355056884
C 1.729994694198215 0.5347991906324873 1.3710488881908354
C 2.0260051321574397 1.6454781520241133 1.9418978827384814
C 2.309654454197429 2.7030006778057873 2.6594695374227273
C 3.5899057430739734 2.654419750807123 3.426805686722508
C -0.41627840902041674 0.08644355467158453 -1.006665146954529
C -0.8573312907444969 -0.7946136275416235 -0.18301311779276816
C -0.4257160153394638 -1.893388035425127 0.6048130190520998
C -1.270921877530883 1.0917539613132015 -1.5474070832197315
C -2.481003806644886 1.4009941140262512 -1.434090746949596
C -3.682143226842153 0.9649947530276638 -0.7385798573263419
C -3.908708498542415 -0.028763290047993568 0.09480305929642732
C -5.32597306620669 -0.02870509283128432 0.5209216537214425
C -5.987278229922369 -1.3635770002773318 0.2599119205334549
C -5.921137933116784 1.1027268476289 -0.15067016706497333
C -4.995770154345861 1.6743236929606287 -0.8716206493720453
H 2.6932647228027187 0.8126815893717114 -2.3071855318277317
H 1.021719344128615 1.4945440678405315 -2.7500828149488243
H 1.8803784082328991 -2.3780659088365663 -2.041939539950239
H 3.267766356413834 -1.2862331700559417 -2.0878671463579406
H 3.224582574162205 -3.054200900543747 0.36329657925219266
H 4.562798498127912 -2.609909831773856 -0.7892304509754862
H 3.389784605226581 -3.8528518037244552 -1.2071529257247693
H 3.0900919955499924 -1.0427385651498016 1.1940763094060156
H 4.366832554163143 0.9391886612462212 0.9686408773105292
H 3.2804745654955094 1.7045753467270792 -0.18542704067514648
H 4.402512156995495 0.36027424389004803 -0.7225421759012276
H 3.653320967489926 3.6394673642458626 3.9750579759095737
H 3.5263049814673213 1.8703494390018247 4.207854977099422
H 4.461624959446422 2.49329497735717 2.7679313106288963
H -0.16167790665845994 -1.5865536793396542 1.6503123049460817
H 0.3147971415638348 -2.598861406015603 0.17275533710372126
H -1.3434585440621534 -2.580452350203541 0.7549234009095769
H -0.6971373379124142 1.7872435844133738 -2.2669684902627547
H -2.727160780586656 2.325672503311498 -2.090252018942491
H -3.1810560813051563 -0.7694682170351769 0.44085960949439273
H -5.164694096296121 -2.1119059471645754 0.15664110875442494
H -6.544504718886135 -1.6406485346254753 1.174840199487029
H -6.600236062610736 -1.3620587787921166 -0.644932048563383
H -6.957880260250228 1.4735772597482304 -0.10680938807064491
H -5.153661392103496 2.5625833043255035 -1.494961711080562
