27

C -2.8866477017619614 1.99900288103305 0.7626576159933635
C -2.3675002067537925 0.809909137717108 0.5379974522809954
C -3.279474197824905 -0.24646669679496977 0.0685845238273219
C -0.9742735289273057 0.5910861353607443 0.7524967644368246
C -0.22122088056882594 -0.4499676023207838 0.6141101021895232
C -0.6975209571160406 -1.7509829747828791 0.16128861197215819
C 1.229760079603169 -0.32685824100075356 0.9381934394667584
C 1.9449051012173308 -0.6717320989250974 -0.3746327617898122
C 3.4151754387078492 -0.5930492447118642 -0.21320842532707637
C 3.844663035174796 0.28299911027857066 -1.1013660273204453
C 2.713604442530363 0.8061560101117934 -1.8655137750194808
C 1.5865791736467123 0.2521178976931865 -1.4479251054992406
H -3.9236134655140735 2.1711877880959793 0.6061952192467053
H -2.2626245655997024 2.7939037979873613 1.103688472668826
H -4.360594754246054 0.054842165284740174 0.2200655691380455
H -3.224547969221726 -0.4475111063866232 -1.0243678765524347
H -3.1666467799225697 -1.1977407625573202 0.6137014666271309
H -0.3995196399014933 1.5029077578101293 1.1171077198051997
H -1.1770444150960917 -2.332810281683066 1.0046316654675398
H -1.3181218287034122 -1.7391203036100416 -0.7560175019952923
H 0.22630165279908232 -2.400640005984293 -0.03643173560906539
H 1.5299572680299052 -1.133475187124394 1.6494822957039361
H 1.4830364252032677 0.6735192477893683 1.2838503705548103
H 3.960264619626055 -1.1696640796578828 0.5108357364311203
H 4.905962756297894 0.5441982990463715 -1.208954119117925
H 2.8304584998851032 1.5429550620242725 -2.653656535937723
H 0.5886823984337923 0.43523329530808474 -1.8168212688602692
