22

C -2.756438676216269 -1.4932980428506828 1.3575466562295684
C -2.233306793293834 -0.45946319705499866 0.7413396713275477
C -2.990368790096753 0.8158069832025726 0.7063151352622132
C -0.920540903442237 -0.5554476329315364 0.09466065963231451
C -0.36376204575713594 0.45876418992760304 -0.5324650262128495
C 0.9370601522729805 0.3562981630599098 -1.170794213215583
C 1.7665235421578516 -0.769305064578476 -0.7042985037416699
C 2.925461091020692 -0.524168881517114 -0.1305785679858518
C 3.3845449412338566 0.8789423900506659 0.04059692310781142
H -3.7150913281516207 -1.420059008188079 1.8287225652661594
H -2.2096816008193203 -2.416148086853163 1.3834448325398516
H -3.426287251017304 0.9026282345370832 -0.3048096825282245
H -3.8193091983546608 0.7829414816337219 1.4245255911870243
H -2.2911106086595767 1.6646463239404152 0.912851073342939
H -0.3783430875594807 -1.4867547671212318 0.12582136432723826
H -0.909606059599733 1.389593629288448 -0.5616451516655884
H 1.5195194256155669 1.2966013227417506 -1.1840441012036653
H 1.4403530640823357 -1.795912347799195 -0.8246586462574604
H 3.575557558629449 -1.3075043086829778 0.2307998982202902
H 4.317806324942257 0.9515836919734258 0.6167931421223736
H 3.5535225757920097 1.2749661236522722 -1.0023012978733323
H 2.593497667218727 1.4552888035652165 0.5706115900489007
