29

C -3.065342127062694 -0.07675224274931472 1.7773149470711656
C -2.756928416444116 -0.7702791653045873 0.7066624186593438
C -3.743790470847344 -1.835772812085136 0.29104513260753645
C -1.5303459427745452 -0.5227416832609828 -0.052389729351002244
C -1.8896565649951391 -0.057718627293413226 -1.4255643732838255
C -0.9657483971951759 0.8245735292837406 -1.8431959553644761
C 0.048635767968034475 1.0165419830482005 -0.8247608185330948
C 1.274378438594224 1.4505596939538108 -0.9916449383378131
C 2.1051821700811324 1.5608715814654233 0.16698114948041337
C 3.34412067850088 1.1786628707963707 0.2461587717979792
C 4.500075912268248 0.6465143658807495 -0.014091775390534949
C 4.677754286632828 -0.7630090650956508 0.24172869804150343
C -0.6566599641826099 0.595826199590122 0.45369511717512073
H -3.9823384569945928 -0.2422546920631656 2.354111964569161
H -2.425016128972695 0.69980405242598 2.161236354142905
H -3.330722004783009 -2.392719389389841 -0.5764037943193218
H -4.70430946563878 -1.385471611200156 -0.015923883419816424
H -3.9727390277723296 -2.505148567624614 1.1471410059135843
H -0.9254798947969243 -1.4735557244494646 -0.11631600195762658
H -2.7512089964274407 -0.3977167990956104 -1.9534068392023054
H -0.9503533538573607 1.3457022027097163 -2.8133741344408913
H 1.620295910259762 1.7124307694284713 -2.002893163562279
H 1.7068429553897992 1.976969335999487 1.0332256182730066
H 5.2843271241906 1.2160559833868385 -0.40234831727181003
H 5.502904040029383 -0.8960357128548635 0.9998872248107977
H 5.005599132848395 -1.3601236629716076 -0.6405869282242973
H 3.781659877542856 -1.283576228920198 0.6360222494136553
H 0.09920099177255698 0.2897690497599264 1.1767713818750685
H -1.3003380733340995 1.4485943666297714 0.7602331951772768
