29

C -3.7637380844391695 2.828925224593311 -1.9299737470668816
C -2.7580604164137763 2.0482140393927812 -1.4942263238077917
C -1.886621542848899 1.4781227993451869 -2.5339291453284614
C -2.557499513551509 1.7801976610748398 -0.07952725009652611
C -1.34187190284226 1.0036666905262623 0.2649459635162223
C -1.1429626871175458 -0.24920978678156075 -0.039607965013775635
C -0.036814629226338644 -1.1227326408464684 0.2200850318460259
C -0.16556438509845708 -2.380264421554823 -0.2935968127201795
C 1.1910818188371524 -0.9009580471626563 0.8934139875191689
C 1.8159072028138346 0.011264520435342299 1.5704597583434192
C 3.1098425750952012 -0.08100089889888484 2.123590377773405
C 4.0318983267508095 -0.9707103000350226 2.147816298315941
C 4.192639905617834 -2.298139506991057 1.6132432424118905
H -3.9333610873592044 3.032896595756081 -2.955670330917916
H -4.4212422187761184 3.2559804798061553 -1.1799675447550155
H -1.1377185121224922 0.7685781986157753 -2.214712870150178
H -1.3482510989414354 2.3625007398630613 -2.989209180363886
H -2.584046548880646 1.0662951949752868 -3.325114920507599
H -3.467288144083103 1.3968143487221294 0.4024406168541281
H -0.593833605237012 1.558276342769596 0.7952249499889446
H -2.0474917146020633 -0.6872540832305756 -0.5827726428872064
H 0.5448117018700857 -3.144418912499872 -0.19309641156174112
H -1.0979111364196728 -2.573930723091987 -0.8716898033721413
H 1.9069419936025052 -1.8408249992865244 0.8575494739008604
H 1.2650900739890496 0.9519444032339373 1.72504019681636
H 3.43441703270082 0.8598727346194077 2.707470513790251
H 3.50600353187265 -2.986786054279205 2.207141320632813
H 4.073829944667105 -2.4317210897471133 0.5312737548191773
H 5.211813120260256 -2.735598510899685 1.879108973315713
