29

C 2.97446232269444 2.861480981568196 0.6355232845030971
C 3.469993783945067 1.644292657075427 0.574354053279083
C 4.9708934019554665 1.526708052601144 0.4315474882675616
C 2.6449757268925147 0.47144733040939135 0.6387618095743011
C 1.3552571564842342 0.4372898224238799 0.7611327267132545
C 0.6326306900456989 -0.885689947649953 0.8138802906470546
C -0.7527297485581037 -0.6847778345149174 1.306445484068117
C -2.0953259506244115 -0.7275538637924398 1.2347438789378948
C -3.2398542515037896 -1.1079697564703428 0.37839124362380283
C -2.905648945928208 -1.0038180318358318 -1.0807447113670432
C -3.520806538595566 -1.8230694724819223 -1.904724550612004
C -3.2205185640708938 -1.7536553552532879 -3.35235884287333
C -1.5355064661134852 -0.178710019794393 2.493525314657268
H 1.905856189853095 2.9763269763544073 0.7375271845663675
H 3.650091188565394 3.7046322331549377 0.5821699687316508
H 5.413510500767506 2.3873513981553276 0.971120016915791
H 5.236846775491096 0.6115799137876088 1.0157779010226928
H 5.275316883983188 1.4313595145393132 -0.6099969418540324
H 0.7736645950555064 1.3352625936707647 0.827919410530868
H 0.5549982909343981 -1.255902001332567 -0.22898978352843596
H 1.1650241560555898 -1.604320935029832 1.4454700972898018
H -4.118641943863946 -0.4341267878909065 0.5224255521107525
H -2.1678400693719917 -0.26031876638965834 -1.428956784148236
H -4.231807789302431 -2.5353604429679346 -1.5433045170851556
H -3.6941225220815657 -0.814628898247021 -3.752976119203403
H -3.5818498800566254 -2.6302542196433953 -3.9188621181030134
H -2.13205659794547 -1.65000433668856 -3.5593628163167237
H -1.4189076178369355 0.908601597424907 2.6345960383056335
H -1.4079047771860513 -0.854881235972525 3.3749654413609
