29

C -4.132563097104092 1.5314289624298507 0.6736058018573625
C -2.9414803364606947 1.0688066401959664 0.2295741058873646
C -2.0021536745383712 2.0729930313720697 -0.3166576036917308
C -2.711075281272255 -0.337060824718236 0.33215893644624955
C -1.7053819696469512 -1.085100793591389 0.008431532330375087
C -0.44953270543253 -0.6834375661293366 -0.5870655996362161
C 0.49305200054403675 -1.5775402954351734 -0.8628463534043193
C 0.947049479920306 -3.006832453341669 -0.852694593343994
C 1.8202298963118198 -1.89841252292243 -1.3855306680189448
C 3.054838371427226 -1.6319329091958166 -0.5747970911679456
C 3.2347817859131935 -0.22072402933510316 -0.2225076279251116
C 2.5724423150242575 0.3826144396660057 0.7730903756491418
C 2.7640770534275703 1.7998048139032632 1.1143840878763176
H -4.884257565785688 0.8992280491947331 1.0861881926430856
H -4.334597115436558 2.584526134906362 0.609341322678432
H -1.1114196619016894 2.1959386108472616 0.3124651141394481
H -2.5091045803814556 3.0978913171118108 -0.24752734472850482
H -1.8218435821123058 1.9694537464351791 -1.3983837141244313
H -3.56604436967686 -0.9295279490327728 0.7832406870434099
H -1.7902484731007655 -2.1864671941053557 0.20248792046015052
H -0.29068585764466764 0.36120458683480217 -0.8046619669230579
H 0.5569918087210012 -3.684045405724596 -1.6417976183495073
H 1.1985279575132346 -3.457209949437101 0.12113664261412645
H 1.9997477469752454 -1.8385007255073873 -2.4948940691175476
H 3.2415896583806743 -2.3475005523053 0.22337429181825996
H 3.934945253437014 0.38281577082756274 -0.7841616502251804
H 2.316528153680462 2.4614638857910296 0.32369347041639235
H 2.269222036138328 2.0075944477559275 2.0791672541844877
H 3.8463647530787664 2.0685287335104605 1.2088793010088406
