20

C 0.7162636009699157 -2.282595859647057 0.18359309147617492
C 0.5096203915127636 -0.9644682578085897 0.173482852220804
C 1.3961109907042342 -0.041209791855554914 0.8076598744579869
C 1.330583056250349 1.2509880613489945 0.8829596606297568
C 2.2915362891544326 2.1251057033184075 1.5590469366248045
C -0.7030599229045478 -0.5135013655047733 -0.5401098549935768
C -1.1520043433669815 0.6996578797852855 -0.7103229687051065
C -2.387310374228713 0.6728454045772376 -1.4808906192265963
C -2.684905088228064 -0.5696022483999053 -1.7775245385258962
C -1.6485491908952274 -1.4320665706180102 -1.2105275282811474
H 1.5898753279059292 -2.6497976801134 0.6938603412598331
H 0.055354469548446854 -2.9826956499711965 -0.29026188884797627
H 2.280912883460746 -0.48233626629843507 1.3182476682938817
H 2.8122808880416335 2.836664461327759 0.8569479291866287
H 1.854069493336156 2.6963091720893395 2.4018056354918573
H 3.09534997769036 1.4901295164551445 1.9902557058718517
H -0.6708340113043314 1.6046937671182995 -0.32982808417433424
H -3.009656831854959 1.5102188263317486 -1.792699463613826
H -3.5485120493504096 -0.9292876632103406 -2.346853315571194
H -2.1271255564419675 -2.0390514389248 -0.38884143357427453
