23

C 0.6881840734499121 2.3528714822390144 -1.670682551142501
C 0.503224889722798 1.0492798272896984 -1.0293800334322056
C 1.139926588494778 0.09042597141532654 -1.8383358946830979
C 1.3761442130153043 -1.1250836076394248 -1.9187013126978822
C 1.0773950152194505 -2.2873302164358353 -1.127308473031134
C -0.23795342433924466 1.219489733267914 0.1551734598139078
C -0.7241789350311617 0.5659830193178507 1.1298637707206889
C -0.7233113628429463 -0.8112836874795292 1.4843923261599579
C -1.3954287570079864 -0.9753787823930669 2.6391776567490357
C -1.8568975286419394 0.3116792835146837 3.070330334441014
C -1.4881249705339537 1.2409868228576444 2.219829705800114
H 1.2278945687337353 2.3576576630725046 -2.5663640273953954
H 0.2695146475258083 3.1917573620831137 -1.1922530498729127
H 1.6212920822969648 0.6841570969207166 -2.786906097864606
H 1.993138762655253 -1.4157327923165168 -2.864254272055275
H 1.4689136099361373 -3.2471256020353954 -1.6091271947946948
H -0.011290244508062876 -2.50970622032461 -1.0433210767629635
H 1.530411474977157 -2.293049814496102 -0.11352854139089648
H -0.4778307185814357 2.3907271459903234 0.25040685004878155
H -0.30127822473774285 -1.6427696861143568 1.0016192267349813
H -1.5417903810427755 -1.9466346051129904 3.1323960708254597
H -2.435162240445306 0.5054728756137585 3.9773118499719464
H -1.7027931383146588 2.2936067307653283 2.3031192868738275
