18

C -1.725194509289371 -0.7481816957416533 -0.8232963612624282
C -1.4668023766770137 0.005626568791936536 0.21743620159092766
C -2.606383062919831 0.5873034590894721 0.9746145458747136
C -0.10887667732076874 0.32958827588934075 0.7088276735948215
C 0.9909385898008862 -0.2730481670007781 -0.06745589628892835
C 2.1295181529349025 0.3924271697761063 -0.15810545706749068
C 3.3186625125956057 -0.06314392323419288 -0.8890500779993473
H -2.73670237814465 -0.949445624967231 -1.133386311417038
H -0.9201795549748989 -1.1746644635308316 -1.3805410108448135
H -2.3034293675171864 1.377161284159002 1.6687566927633264
H -3.1330043754523853 -0.2635249305958162 1.4654552219411863
H -3.3732780690284887 1.0329596397821548 0.28156933599837786
H 0.03803766751830139 0.013620114936651752 1.7708071572875501
H 0.011321507145123498 1.446622975683682 0.645757061638929
H 0.938461727112315 -1.2220288638993628 -0.5694250557839743
H 4.162028660805877 -0.3239472902267056 -0.1947923513759096
H 3.080111196500517 -0.9550554701123877 -1.4795007576038328
H 3.7047703569110584 0.7877309412006137 -1.5036088089288644
