19

C 1.7182317667343276 -1.1444856062517927 -0.056493992682815575
C 2.0327839055613466 0.025391105000555123 -0.5914792310136769
C 3.3599032138233134 0.624278523781573 -0.321206830763248
C 1.1208059315684888 0.7685180747507494 -1.45004771561913
C -0.12816539576498956 0.8774100631174059 -1.0596151305667871
C -1.2894853183381 0.9144204837679437 -0.41692858347680184
C -2.1367047791408273 -0.2638569468300534 -0.5891404919631504
C -3.1278580762357207 -0.32637972647662356 0.5634226152641427
H 2.425760141938036 -1.6582365468058515 0.5730688259281339
H 0.7613589375304335 -1.6138289656844838 -0.22949299979684343
H 3.361052336281956 1.0973618856218301 0.6759964743104037
H 4.169409001466463 -0.1591097992872596 -0.40303301656179585
H 3.63026988254686 1.399694666837656 -1.0646493410947255
H -1.476794069121655 1.7904418876647912 0.15203710917921565
H -1.5969716683387614 -1.2078394286247347 -0.6625614425775281
H -2.7454040548616088 -0.11366443090665321 -1.5173721019863697
H -3.724365055423601 -1.2784543190795226 0.506316373792307
H -2.5338237832250914 -0.25523826541888023 1.4885192213402818
H -3.820002917000803 0.5235773448233365 0.4692623980841795
