29

C 5.420984510985668 0.29646619763662324 0.12808680821515595
C 4.08196168626737 0.06902699616230014 0.18142052264159828
C 3.674222872766647 -1.3286809661703067 0.43176384650582467
C 3.2105095202337677 1.1997098869412517 -0.010051032542359518
C 1.9439350907866588 1.2045606194666483 0.0006077938033402666
C 1.0330419405250164 0.10984581444608887 0.2018492238540698
C -0.3888254636707944 0.6027578044238021 -0.19386684146125815
C -0.47110432155341586 1.8505838756814845 -0.6099374894208393
C -1.4350735854327872 -0.29311525448202896 -0.07922693691758444
C -2.6406108473600356 -0.4488976728422267 -0.22977799892272868
C -3.6551479807488976 0.4789864769026604 -0.6979774306053284
C -4.930068639896675 0.08697777225179985 -0.7838711382609697
C -5.265156113687006 -1.28975664652852 -0.39567756858218606
H 6.120516722658941 -0.5016841513558588 0.26181712962949927
H 5.778238498057858 1.2909450136518679 -0.05070243838460609
H 2.8909785024117376 -1.4174557263823477 1.2041906402833216
H 4.5601686450657795 -1.8776707179661354 0.8513670148566264
H 3.3274741584660257 -1.8212094897433346 -0.5026756512595126
H 3.6942785073521063 2.191979583908803 -0.1894242627345
H 0.9057782923772246 -0.1893108658552444 1.2832052073617288
H 1.2188471832344958 -0.8137192750332737 -0.360490908115422
H -1.3712673081377482 2.337388553137465 -0.9168106242169031
H 0.4821049618621531 2.4228634997798157 -0.6357339452709585
H -3.0520934153253116 -1.4794892294436512 0.03402883366277738
H -3.434095959786924 1.5138635717842606 -0.9949241752844491
H -5.666536276943173 0.7661749176212337 -1.1255616760752574
H -4.7031478740839825 -2.0193403436964976 -1.0349585524772735
H -6.34420378507233 -1.5001697890432515 -0.5441511515716942
H -4.985709521352552 -1.441630455253369 0.6820567735378544
