19

C -3.3056613184653316 1.0793889612433663 0.31689566091377613
C -2.286542644267756 0.31002917636742827 -0.04526984614840929
C -2.518379828668197 -1.0108850033611885 -0.6382990585282245
C -0.9293384786167611 0.7825738734370347 0.14840145530374582
C 0.07922574493272845 0.004534942851898164 -0.21753194812415083
C 1.4407747950345058 0.4685583571924421 -0.02778148185323079
C 2.44328445512398 -0.3060997663658901 -0.39209408185999245
C 3.8686945867985996 0.11123417170110807 -0.22433958814943877
H -4.3291797408169 0.7754913191656067 0.1945441530881919
H -3.1246347730923034 2.051044312731228 0.7529665420578829
H -3.607403206026943 -1.1690086390534875 -0.8683850431728865
H -2.0045202904899497 -1.1130061249832333 -1.6386275831233108
H -2.1311190314526702 -1.827515726444487 0.0235895580459255
H -0.081087434750472 -0.9763225732687627 -0.6581008089351945
H 1.6235637738029862 1.4394676358720113 0.4079183703624516
H 2.255469208401405 -1.2687566803582566 -0.8240128764980094
H 3.916422728363945 1.2149351007223708 -0.3471322774831364
H 4.242719484474548 -0.24458216162532775 0.7430225438349872
H 4.447711969714559 -0.32108117582389534 -1.0561048638774682
