18

C -1.7487399975400484 -0.9410341285039072 0.4352811521730912
C -1.1555582455933784 0.21753994791035147 0.18396839284936842
C -1.9735301503783558 1.4731936048725263 0.17839279504571456
C 0.2823370411110092 0.3661219206010276 -0.09700391687778025
C 1.0480929755738262 -0.9111004099136293 -0.07938193604555722
C 2.502244594715382 -0.5269439348658705 -0.39242892452391576
H -2.7940881014283785 -0.9918154086333896 0.632457149897944
H -1.1819618760010209 -1.860207675609344 0.4452260796950084
H -3.020920298906079 1.2841520156073571 -0.11002472539415979
H -1.8705860702533337 1.9093165439197919 1.1977527968503314
H -1.5243752587218968 2.2180292893088986 -0.5277471865868482
H 0.46056963888427455 0.8571837537588338 -1.0851000258054315
H 0.7700964061010752 1.0571637320992822 0.6487498752751887
H 0.6992828370975919 -1.6127280353111644 -0.8589223561504152
H 1.0446928227781496 -1.4005147089705432 0.9175361832616203
H 3.17335178900413 -1.3856270003011795 -0.3501003404447169
H 2.759196047817685 0.2826403320377781 0.32987808450408074
H 2.5298958457392184 -0.0353698380068572 -1.4004445186684868
