29

C -2.8818229602764145 -0.7823104101868399 -1.5300213171655672
C -2.5195901618049175 0.10568925967085654 -0.6298922457990742
C -3.2727933969453558 1.3715759322098395 -0.5193899777769673
C -1.3869372199322592 -0.16642575921361705 0.24301269661649083
C -0.9749148720821483 0.6822946391039663 1.1640825509074484
C 0.17737288557232248 0.3871632732311812 2.04046960934831
C 0.6466809163976239 -0.99943599188675 1.9269960596882185
C 0.2457560531156099 -1.90942498468611 2.779687443486488
C 1.5603872636546463 -1.37434073850102 0.8672563692379005
C 1.984618356516245 -0.48463828092001127 -0.008578999286606855
C 2.90815276449201 -0.8764255784215721 -1.075079841147023
C 3.330474274407753 0.01878037662230725 -1.950351124079008
C 2.8644350987178044 1.428471426754751 -1.8493933162610008
H -3.7301347379900816 -0.5499524480760296 -2.1656033391810183
H -2.347811622646182 -1.727097723685632 -1.6384744248243004
H -2.727058668818181 2.229293931509629 -0.9624947111298504
H -3.4460883022677575 1.6530741023236406 0.5509245347960717
H -4.239665202464177 1.2859173402532822 -1.0550220942315132
H -0.8426031006396733 -1.1117708899180458 0.14378082944226664
H -1.489971286986905 1.6184067605637833 1.284496210893546
H 0.9477432663080753 1.1404979714738042 1.8769273096561248
H -0.43248294671655235 -1.6257877922805033 3.5643745044132316
H 0.5768044600304246 -2.931617854508736 2.7155805105571527
H 1.8969842004324844 -2.3951293424326012 0.7953384165885283
H 1.6524505134278307 0.5371470483545152 0.05717912842039149
H 3.2494856415715523 -1.9031934019544952 -1.1511106480714264
H 1.778607511512522 1.475914876531101 -2.096503376876878
H 3.0082322734746 1.8076206508308443 -0.8277331524681394
H 3.463688999939503 2.066536151590997 -2.5504576057534054
