20

C -0.15338347487553183 2.2045090856390717 -0.5646514000962912
C -0.2159726089538394 0.9052173913884892 -0.24593119584774653
C -1.4391778737531458 0.341389242376453 0.052326650568783495
C -2.113575761404275 -0.6494850945526531 0.3791902468164543
C -3.6227990030060537 -0.47958645150901363 0.5404503463111677
C 1.0567872002508918 0.15788701295206078 -0.23761168846285838
C 1.2433295154137893 -1.1139724973665377 0.04123978709049974
C 2.6863733356936166 -1.3982757452660701 -0.08380998774039236
C 3.332356992124234 -0.306846380038574 -0.4308819272114377
C 2.379758005784154 0.8012681136121559 -0.5681864313926956
H 0.7906365949271908 2.636153572970211 -0.7939984874787261
H -1.0374532356630513 2.7968345702915274 -0.5879056152467506
H -1.7353573464505194 -1.6408220055146991 0.5653856677928144
H -3.9571347817008355 0.42226925924198444 -0.011529700492336602
H -4.092130687420532 -1.4113817820725754 0.1769405373053382
H -3.769312433245903 -0.39540437695975006 1.6395023743791852
H 0.5088132369481145 -1.8713691252188491 0.32036550916047996
H 3.1550590281506943 -2.36502232572669 0.08442919763649435
H 4.412457137601407 -0.2622324258842748 -0.5859599281947565
H 2.570726159579708 1.6288699616380362 0.170323840834756
