17

C -0.5177331534681487 -1.5983541164125754 0.636635267787819
C -0.07457752453935622 -0.36872495561922186 0.39769690139635033
C 1.2708895586498086 0.020397070037982405 0.8617539815774454
C 2.1679509616336303 0.4356864307999288 -0.2816122828288008
C -0.9379876567932851 0.6161102390424446 -0.3392216354910966
C -2.1676116227208055 1.1015951905043375 0.2001467711719829
C -2.273659666059412 0.0966896429099845 -0.7525388165920793
H -1.5084529268681175 -1.861265555247217 0.28652716085593477
H 0.08174603123292426 -2.3331869873493263 1.166446188895073
H 1.7499519464143667 -0.8358088139544215 1.3725234769466346
H 1.1621634768369715 0.8294431375422454 1.6201321701941898
H 1.9041471543998283 -0.21466251889691637 -1.1498625404483207
H 2.0322691363985093 1.4950763521454944 -0.562371845934251
H 3.21262903213341 0.2690140445487103 0.04739733830086068
H -0.396865453694428 1.179467278516248 -1.1511450728571475
H -2.786772321010431 1.7223109433941897 0.8308985257777322
H -2.9180869725454412 -0.5537873819619074 -1.3336491124228853
