27

C -3.4588937018032326 -1.2760243008184402 1.2113548936149485
C -2.629522720435897 -0.679017547365157 0.31920902645398036
C -3.272601877714867 0.26883110104645647 -0.5847350625724989
C -1.2319832564236037 -0.9643352490804309 0.30516058769737214
C -0.27072394101318864 -0.5241553970968019 -0.4503520427666951
C -0.3717138060198088 0.4386000883407906 -1.5590440602961124
C 1.1104729059714333 -1.066805673067719 -0.17158434818491625
C 2.0675132561683705 -0.033867477198832804 0.23940363528880873
C 2.694711212986788 -0.06119256020811752 1.4391563409828299
C 3.559156942115188 1.1060892969742744 1.4996471750365448
C 3.4068688070740207 1.8346301973659458 0.24729656994971447
C 2.517977689845179 1.138845625895117 -0.4810695607162697
H -3.00664460682811 -1.9785655079116136 1.8877166581845608
H -4.498644849903272 -1.0863863646282508 1.268795729705595
H -3.476831439539641 -0.10998902085070161 -1.5881379696816076
H -2.656740630973941 1.1864667487021854 -0.6487278949078866
H -4.292661568328613 0.5656356118326903 -0.19367495705587048
H -0.904074761525989 -1.7048859697495156 1.0916225313873145
H -1.266637671549119 0.14304946267395668 -2.1863376246526736
H -0.39000575452358854 1.4846331742471492 -1.2756703346783465
H 0.47302505667901845 0.22059016244469146 -2.296867275633223
H 1.0861615416134003 -1.8946504377847364 0.561913010097846
H 1.5201954117110374 -1.5216460522773037 -1.1098921204317702
H 2.5577470772742465 -0.8292073257375362 2.2005308392719396
H 4.608418201575903 0.8871744407103852 1.786529874559725
H 3.9075708910995677 2.7444285811714733 -0.031239266840478036
H 2.217861592467876 1.466973955052819 -1.4810043538119286
