27

C -3.1231304612963022 -0.9270146477066376 -1.0677030653691666
C -2.7427708077188644 0.290005848620782 -1.4030209901337942
C -3.5489201103207337 1.476327929562922 -1.0181095469445538
C -1.5048160992963926 0.49748109699587595 -2.1695622630142006
C -0.5327789441301339 1.2509146110323304 -1.272163298370933
C -0.30894519042075025 0.40195052499165046 -0.09032423363648479
C 0.8731994072144105 -0.03630043688222138 0.22619445131401708
C 2.046824350041573 0.2576670937769006 -0.5274210808085036
C 3.2205102120452653 -0.22586667644819353 -0.14225307711587393
C 3.273535314267683 -1.0488092769004762 1.0485048393887908
C 4.153132564576077 -1.7811045126192504 1.878959321346541
C 2.7388080645814714 -1.7636361284961175 2.2426996007893147
H -2.5232708076473225 -1.7759473081428205 -1.3570512168350715
H -4.049938404804564 -1.0899042820555007 -0.4930355689892153
H -3.2384020474136963 1.8318524464742703 -0.005602293895103683
H -4.601440653821715 1.1547109085170884 -0.9187699837442214
H -3.4772127186674777 2.290390777787527 -1.7526035216347942
H -1.6627177266280413 1.0308054631227872 -3.121963255775688
H -0.9949360537924806 2.2127777463900555 -0.9342527041504896
H 0.32256657378880627 1.502987946364446 -1.8678058930100134
H -1.182806855976763 0.13309645136366793 0.5439021621419858
H 0.93852075650018 -0.6547573465603214 1.1140523703023408
H 2.055296059587311 0.8750162371101878 -1.4340974755326363
H 4.121916406409542 -0.00962178838083125 -0.7071504591055088
H 5.164357711000208 -2.092105925125992 2.0561070858530988
H 2.499430049933604 -1.175854786351996 3.1512184391818336
H 2.0839894119968165 -2.625061966432372 2.0448341199630202
