15

C -1.625124751782615 0.6395618366838015 -0.7069306071298969
C -1.0116536572742112 -0.03412884708396584 0.24694560019662498
C -1.802850369801578 -0.6439633653657183 1.3818068184764374
C 0.40741283070834855 -0.21190312025203384 0.24522502044449587
C 1.2070891398409107 0.2625013538670416 -0.6747658847429359
C 2.672209890506163 -0.05784035591443486 -0.4577313244168859
H -2.7034835962263095 0.7266249261809827 -0.6288378444095075
H -1.081822373632296 1.0723630949591734 -1.5086905057390794
H -1.1537108131344336 -0.6360455072226356 2.2729885490633417
H -2.677796482340039 0.04644746301021305 1.511992454243476
H -2.1206056305035275 -1.6695782775673034 1.095673408492661
H 0.8931422486576317 0.8332328834615945 -1.5243704777727944
H 3.199610599185543 0.14240410294344252 -1.3928611162428355
H 3.041990593466786 0.6408420932765511 0.3252339922476391
H 2.755592372329638 -1.1105182809767313 -0.18567808271075198
