28

C -3.7385958475282615 -0.5091772786419305 1.8793058223734778
C -2.581112084837699 -0.26019192932988644 1.2912084590313058
C -2.380515104792283 -0.6964829263989801 -0.1205518074684373
C -2.0901045554571573 0.48681631063098835 -0.9919194507549617
C -1.5328531935213832 0.442562146403714 2.0630428282095936
C -0.30365556606596644 -0.32997896799654847 2.2131268980302172
C 0.6500003165717905 -0.24274557587644216 1.3019098588642835
C 1.8952308543879575 -0.9860817832609091 1.3952487163371567
C 2.794396788713266 -0.8421812613821922 0.4437085342773242
C 2.5645716688999487 0.04036517389165163 -0.6892819300574208
C 3.495066651206822 0.15523463715587055 -1.6226749101992402
C 3.2988444057513946 1.052115402901934 -2.80473963422667
H -3.9102156098089114 -0.19889658252403217 2.9149995602949277
H -4.514518351393229 -1.0270468620639595 1.3148911233380007
H -3.2623500098148486 -1.2302975174603226 -0.488717027884974
H -1.5120302855747816 -1.393098126139469 -0.1931676128165478
H -1.055972992573714 0.4467126513612755 -1.430619094091884
H -2.1400061625018805 1.4148945857807662 -0.38266075614768247
H -2.8433858855995995 0.6226127317692276 -1.8006554905581593
H -1.9590850711774048 0.7931959475218966 3.0225715355857017
H -1.3278788748965515 1.3955596762590097 1.4894052713624542
H 0.49845474849160915 0.40631650432263877 0.45439013693442276
H 2.079581606965794 -1.6557034621776958 2.2474030680735946
H 3.712436225213732 -1.4012762445650007 0.5291618679613949
H 4.440618714990322 -0.389161637917028 -1.58146262816202
H 2.246277386200533 0.9892461977811029 -3.1883742677650546
H 3.497150634143354 2.121948021209909 -2.544889986994364
H 3.9796495940054157 0.7947401687460356 -3.627753311542875
