25

C 2.5412261599828603 2.3793309317456792 -0.3438614988560364
C 2.506341609071012 1.0650327793075178 -0.46305161632539293
C 2.9755597059562513 0.19515691620110484 0.6408546197431979
C 2.0173676344636116 0.45642960153193785 -1.710083629824569
C 0.7876621139502255 -0.3597635073406086 -1.5435488716138623
C 0.17136846308880763 -0.5173842902706279 -0.3902769824660187
C -1.0570646525457281 -1.350968683839969 -0.29667417758309605
C -2.05322265073447 -0.7775762381620134 0.6326473602617066
C -3.266384839736531 -1.2634648364017305 0.6561468441086044
C -4.259917249537504 -0.680468504048839 1.593418010005842
H 2.9184347637652843 2.8044608575501124 0.5738639442956414
H 2.20627256556441 3.0576868645932156 -1.1303905857256968
H 4.084718998599941 0.2332378853790254 0.7444512695597219
H 2.7308452356110586 -0.8732525846510393 0.48703320562204194
H 2.5222436812401203 0.5719583374815396 1.6005456782457435
H 1.7327583005958802 1.2675973448072284 -2.4471341541820175
H 2.7820155986122033 -0.18698814361801214 -2.2061322509506778
H 0.35301351676485354 -0.8684078080791658 -2.421034297739858
H 0.5021428611324483 -0.06348713788486193 0.5262704021277798
H -1.5017206466824786 -1.5493772137594106 -1.2927135331444104
H -1.7796944949391658 0.03095700459180581 1.2815420599576353
H -3.536901824174054 -2.0778581068899196 0.0006190036739251683
H -4.313001147130101 0.41146258509170924 1.3564189400309818
H -3.8127407235965367 -0.7373664469506197 2.6176953196560473
H -5.251322979325189 -1.1669476063831046 1.5333949411238508
