15

C -1.288978993947947 1.5103771818363685 0.2297421222180262
C -0.6142367940347991 0.38158992246688717 0.10893351000522161
C -1.222232441872527 -0.7603537540239621 -0.6090140992014583
C 0.7227374884179543 0.2700741743635849 0.6825100175535828
C 1.2857877587888835 -1.13576634611054 0.7514057127266563
C 1.9261923218964652 -0.021023001116428953 -0.10715928163009251
H -2.277355136221153 1.5759114112840544 -0.2013954170282437
H -0.9013212425059625 2.387465175593068 0.7445515482369753
H -1.1603414887674532 -1.708741144116987 -0.048985393793356966
H -2.3088958520939293 -0.5987089638922007 -0.8235940980469235
H -0.7387350506208664 -0.9429666736277287 -1.6060146328127525
H 0.8798425840243677 0.8506343786949822 1.6135152218193622
H 0.8575855078358338 -1.9366711385689332 0.1513100015761585
H 2.9125574972379447 0.26894531998254184 0.3073836540930264
H 1.927393841863212 -0.14076654276473533 -1.1931888657162126
