21

C 1.5396310497292147 -0.6772093296675493 0.31410706433480984
C 1.0961545632957888 0.5049855991522855 0.027149065293953428
C 2.1082699507981277 1.590044834987937 -0.19199743607803466
C -0.3086494563360858 0.9202120088657655 -0.11460383791252732
C -1.3305233427169187 -0.1447581815270107 0.0828842788208767
C -1.2666654866078773 -1.2981988230569552 -0.8322900908016281
C -1.3220787648245456 -0.6450153870614617 1.5246639468490069
H 0.8431096157186766 -1.4807762104701814 0.47822412148058996
H 2.5862864205579816 -0.8816710225727188 0.3938126699148231
H 1.7773477603319046 2.5254611068521395 0.33673964791043975
H 3.0768010731510826 1.3245672001786684 0.24343092609343212
H 2.240850018129722 1.7900437707350154 -1.2854368532625378
H -0.45441203406751 1.4211680481419373 -1.093255073059412
H -0.48857151287260436 1.7002352275222463 0.6561344522140578
H -2.3189354816274244 0.3441314218546843 -0.0528112006870705
H -1.2527841326131994 -2.2914218866831018 -0.3520315308272918
H -2.1619253923978254 -1.300866366757967 -1.4870856369056433
H -0.4098024971620858 -1.1507548602447049 -1.5326850232306557
H -1.312078787300696 -1.7515596148471724 1.5666967526322082
H -0.43725575033313574 -0.20081043280082136 2.0525257006150754
H -2.204767812853408 -0.2978071026010587 2.0942208452131474
