15

C -2.1224042424044205 -1.0408209979301255 -0.04938109645501244
C -0.9885947886931862 -0.40618499213016196 -0.2550172031490077
C -0.8058693937658281 0.4043359998777661 -1.4968759980092994
C 0.05006760823428165 -0.5227654675451366 0.7478127454563047
C 1.2240549240078473 0.08637274494545241 0.6167874670271272
C 2.562063758409344 0.4553186598432519 1.022637677979349
C 2.0964257706545992 0.9465824275432384 -0.17619901267349788
H -2.2713368612443885 -1.6280808010257897 0.8375941666438074
H -2.9268659243262576 -0.9865271244188829 -0.7645546939874085
H -1.064227011763143 1.4685749280917673 -1.3135517669439831
H 0.22631939855824762 0.35951761693869255 -1.882886342824607
H -1.5146730680973433 0.03126328065963551 -2.2568222926073593
H -0.08002906666681954 -1.1078247144587836 1.6456629806636767
H 3.359962167756027 0.40141991790356785 1.7321482438231266
H 2.2551067293398956 1.538818521709502 -1.0641794168328493
