24

C 2.083340511967358 -1.6001705422586927 0.7882314134989871
C 1.5135182839371444 -0.5911290475663065 0.16469722383699162
C 2.1877841115542958 0.7230242244442338 0.2597871831351133
C 0.2823536897462433 -0.724082223265295 -0.5918309492202658
C -0.8843401719219879 0.07351463063220418 -0.17735077310243347
C -1.403606398551484 -0.13992904296336733 1.198147978770093
C -0.6503645689630657 1.5575978209501513 -0.3713606908289976
C -2.022412361859666 -0.27989784113155597 -1.1560471528234624
H 2.999610058676146 -1.4265218979851266 1.3305912723473383
H 1.6053211211022973 -2.581192192046617 0.7334316822612948
H 3.3100181880520343 0.5842001466989412 0.2186763951619007
H 2.0124677474047297 1.2085685246953646 1.2440291472174667
H 1.9681034006607883 1.398069915020759 -0.5892499673227992
H 0.44012106495108333 -0.5200629327971554 -1.6955012634281557
H -0.02141889499609452 -1.8137363190459201 -0.5844313868399039
H -2.1781982367105868 -0.941920496733151 1.211116629659782
H -0.6418561408652851 -0.42475198699409195 1.9444132539951315
H -1.9067936023604608 0.7654265651474227 1.6031607807033457
H -1.6788754887491835 2.020814217621203 -0.35354165053840686
H -0.10429854997382411 2.0051547308057316 0.4541807018733282
H -0.25614097749352077 1.7973038909617893 -1.3839589602285396
H -1.9248964038580427 -1.3599381056849131 -1.3531932017865045
H -2.9906251559727384 0.04134713695344671 -0.7804309098329966
H -1.7388112257761659 0.22831082454096058 -2.1135667565083103
