14

C 0.6877515232385262 1.313716742937092 -0.46790786225475817
C 0.5144501959996716 0.1741434941904232 0.17189773538347766
C 1.5771858206347151 -0.8647855252682134 0.10131573365083306
C -0.7254410964092479 -0.03790203628738088 0.9378228456913134
C -1.8365148470646695 -0.31982076126381237 -0.08096815068676003
H -0.0847713914250384 2.0750107764053065 -0.41950178530277893
H 1.607337434019052 1.4462195678958332 -1.0240598815470716
H 2.481450948247716 -0.5205549527673243 -0.3973632769369198
H 1.8730090452047252 -1.1802327786693536 1.1297505529091854
H 1.2143171562013606 -1.7674833889312442 -0.43446585975554486
H -1.0722330936586815 0.8951164573450011 1.4661603907676544
H -1.8746464587515226 0.47209300399127163 -0.8390328041505888
H -1.5610800346810318 -1.2712209887980668 -0.5817954277579214
H -2.8008152015555736 -0.4142996107795412 0.4381477899898898
