13

C -0.09276506005783162 1.32862367545759 0.46716845964965764
C -0.435333775591974 0.0689095565631646 0.30713320593048216
C -1.842123188146207 -0.3024733657084256 0.06715667503317473
C 0.5962037493919741 -0.9702503229773296 0.3691821538102772
C 1.826041404378835 -0.6899426080725801 -0.4155623254248509
H 0.9236490142882593 1.592350645255646 0.6401618137737957
H -0.8636134633758635 2.086260949093559 0.41920811880833947
H -2.4026556679494435 0.46851165232387776 -0.5236822836847089
H -2.4093125865945986 -0.4584143464763565 1.0264692644222901
H -1.8773015094203673 -1.2241362496891481 -0.5574545578170428
H 1.8382354637659335 -1.2175943465859376 -1.4129931420337025
H 2.038745240046879 0.3876745159595441 -0.5752923826917126
H 2.7002303792644278 -1.0695197551436217 0.18850500022401406
