18

C -1.6365873752869955 1.4974489084129687 -0.3034422284864723
C -1.8326319737695842 0.48946458232024387 0.5237812264373838
C -3.1284492659425274 0.35081696711892674 1.2298311290874036
C -0.8010513594108216 -0.4886846767424082 0.7561708054071439
C 0.3765755677712314 -0.46729857510640216 0.19089793192515814
C 1.4008554174156358 -1.4737745124280095 0.44738826486719213
C 2.5780771102296325 -1.4971045796000237 -0.08509994459500148
C 3.0932385566439127 -0.49529760037028797 -1.0567796647564824
H -0.7397451012549857 1.6890747962231056 -0.8619271244911049
H -2.446042125948966 2.2351477395783332 -0.4640355671111508
H -3.9553104870337052 0.35164681842507084 0.4605156623417183
H -3.1825884350750977 -0.6117317968531852 1.7751450777556899
H -3.335790314706973 1.2296047663688356 1.9002373334985672
H 0.6699499833869998 0.3037555178271329 -0.508800980387881
H 3.2489696434751214 -2.3000675221256976 0.18780989492771805
H 2.6784420823552684 0.5139439562300903 -0.8357446894872265
H 4.204900576682156 -0.4655941591530499 -1.0381762302228505
H 2.8071875004692664 -0.8613506301261248 -2.0670979814613593
