17

C -1.5125510275565337 1.2552105664739326 -0.07094275577030605
C -1.0146842387206176 0.0493700480023319 -0.21452662925328725
C -1.6568565595612255 -1.0739797544797367 0.48826444460646085
C 0.14915940999476057 -0.1617246989472884 -1.0540841985683775
C 1.4413529055372651 0.33466533615534405 -0.5116872221963422
C 1.8620895352167413 -0.26331750526615133 0.7815981908324338
H -2.3925893163438645 1.4303861720485573 0.5608530794863568
H -1.114807761854673 2.145316965137687 -0.543757614119643
H -2.4286191504212185 -1.4910077747408672 -0.22532135903119124
H -0.966155389194511 -1.9319971270104328 0.6773457453107256
H -2.167410813893953 -0.7561111694295026 1.4329426442100583
H 0.04986906647651394 0.1794101743904481 -2.0968966001615463
H 1.445033026680955 1.4459573002495991 -0.4160298976872998
H 2.230782067905168 0.09405317593524297 -1.2802368416972714
H 2.009012031160027 0.519698554898904 1.5819955826060361
H 2.8745600319809896 -0.7561972700713485 0.7073067081529087
H 1.1918161825941698 -1.0197329933467192 1.197615918688259
