19

C 0.4476670156447533 -1.9308623941358178 -1.5835749142509914
C 0.23566633076960442 -0.9345343751965995 -0.7035928861139197
C 1.3358791268786254 -0.6172224711993896 0.15529340260593993
C 1.27174970433764 0.3245585228943461 1.0546257851410648
C 2.417288803167012 0.6230365688220424 1.9173512566798754
C -1.028401052046133 -0.2609184633800525 -0.6640108170031527
C -1.4024297737552254 0.7094145401469577 0.10997465502928873
C -2.8275073710154937 1.2509407793881335 -0.060828101401263025
H 1.3924476576217686 -2.410921351082293 -1.5900358162598218
H -0.3082805557188229 -2.255870739979747 -2.2794713198343417
H 2.282963156429185 -1.1957343224602635 0.052607799972512935
H 3.3356095952611047 0.2427396064538245 1.4239211148766076
H 2.514304023326519 1.7093246417680215 2.1502946275678934
H 2.2382944110256857 0.11659481282209504 2.9063399926725975
H -1.773081043757797 -0.6506152458436995 -1.4183098104164784
H -0.7849219971306095 1.153625512790128 0.8551652985248326
H -3.0939518362109 1.1585430427349706 -1.116389295732082
H -3.4401962031569298 0.641649965847995 0.6264741940791801
H -2.813099991670045 2.3262513696093396 0.20229600573514567
