19

C -2.631183388152512 -0.9851296687130888 -1.3344129837600605
C -1.996574880258387 -0.17936170181246414 -0.49421486093764944
C -2.7428829370904957 0.37497283932441433 0.6824704213835777
C -0.5968751444346788 0.16259049631599667 -0.7096745056968752
C 0.23627329764696492 0.1410017778868469 0.4869641272079995
C 1.5213868702717082 -0.06356406810775327 0.47601015319118173
C 2.7274170282106933 -0.4267935767505311 0.13293834963784923
C 3.595212647128638 0.6588986467041543 -0.20248702174375346
H -3.689431344940935 -1.2473190955668039 -1.176732616375089
H -2.1043972954773165 -1.387430056642149 -2.1808642289054823
H -2.1279146399798274 1.1284832811951375 1.2089711473912068
H -3.678813274945612 0.8530100207927084 0.37253744097512537
H -2.944976165187825 -0.4513291616441908 1.4180114794847152
H -0.16082636872296768 -0.41534557832236607 -1.5419375043464871
H -0.16446365434857887 0.2913631286393713 1.4215917670171672
H 3.048298338820888 -1.4328196829842768 0.0979121592785776
H 3.1199716776784387 1.6323717273255376 -0.4409577133269973
H 4.287753037306093 0.4636789533937003 -1.0737940976616462
H 4.302026179681687 0.8827217130108544 0.6502844432743752
