16

C -1.3940836347223533 0.9969720019648625 -1.3486047499540226
C -1.4368674150296816 0.21716449660509268 -0.31907955012771233
C -2.0790219783036434 -1.1367621643970496 -0.39554006503704553
C -0.8642908988179115 0.6193494992726195 0.9567503413070595
C 0.383839980130363 0.31675200118251157 1.1837552582198785
C 1.571889144279607 -0.27896208553382124 1.2467588908053957
C 2.6531293871682102 0.4148350134427052 0.5390750477316479
H -0.9329510946421107 1.9632846154643189 -1.2847494884055277
H -1.8147784447241726 0.7067268447440098 -2.294022140830381
H -3.1677548108639084 -1.0748017890871733 -0.16467601105130222
H -1.9281990148419441 -1.5256275776438732 -1.4291170257452608
H -1.5629998121001139 -1.8347983447437706 0.3205158566694266
H 1.6591547558292894 -1.1989325884800093 1.7905822823844657
H 3.503893731651998 -0.28051279212367036 0.3314083260182228
H 3.0605260280010627 1.1790613948395219 1.249520949990631
H 2.348514076985004 0.9162514744938182 -0.3825779219755234
