23

C 0.7398333104070558 -1.7011193972027348 1.4879321606100258
C 0.3754449903049614 -0.836161765042066 0.5840495593867155
C -0.9924049049774035 -0.745441726676909 0.16507447503066563
C -1.4838232991095395 0.07137018714235283 -0.7244431804742669
C -2.946131461263667 -0.0048437319757665236 -1.0091547201584825
C -3.6439442412059067 0.7179497828699226 0.1493035405829375
C 1.368306935015538 0.07155956793690046 -0.029195167851095213
C 2.760137412852227 -0.14917203751331568 0.5182230917416213
C 3.671303372696394 0.8498490781560059 -0.20118253348972234
H 0.018580395127834118 -2.3581922529946997 1.9312414672989286
H 1.7626654431320337 -1.7647005445476647 1.7972106344235876
H -0.8775974274480556 0.7918246078971302 -1.25552179349701
H -3.2052406883980993 0.4603684665455417 -1.9837164487705752
H -3.2343468273867395 -1.063041259005697 -0.9415313066182855
H -3.4961694128031446 1.8036663777083557 0.09562420247028358
H -4.718388494519752 0.5115811619935744 0.17301699578473853
H -3.169623610552103 0.3125358444256907 1.0768244633219581
H 1.396199770837676 -0.18949764056803695 -1.121840334255273
H 1.0146874485793511 1.114422560436236 0.11429970609213659
H 3.076842266274186 -1.1602772635000618 0.1852062831039069
H 3.5868680126636026 1.8044663395855975 0.37844475381120557
H 3.2738895784646496 0.9997694680192858 -1.2050345320609526
H 4.722911431309144 0.4630841763102159 -0.18483131648306395
