46

C 0.8229089301730093 -3.430580348902574 0.9241531997870892
C 1.2184120399819476 -2.3183265295639917 0.2081614274944295
C 0.09920690446060645 -1.4253909974088097 -0.04157749859217577
C -0.0926633396779726 -0.35844324990078424 -0.5898995594791826
C -0.6261166896565479 0.8001387236347022 -1.1147899102721162
C -2.034940794796018 1.2493243404533072 -0.8629071853429109
C -2.4071047945617514 1.552927883254206 0.5209456282065232
C -2.2900307492283085 0.40251157962894496 1.473877003527296
C -3.75857527983904 2.2035842596087214 0.6807922902499653
C -4.10617165098714 2.492411214895662 2.0758973812824886
C -5.294518737889317 1.9738063761052647 2.312607552125935
C -5.780391701209733 1.3274958395909495 1.100345779107545
C -4.87834241035775 1.4639988565811533 0.1478671385775875
C 2.5841033296169513 -2.226268232518537 -0.12193688432141159
C 3.410721199108652 -3.3839760950203477 0.5283288854036069
C 3.3199605522384563 -1.3735936534285373 -0.7961623340293912
C 4.787693716479552 -1.5038601319547666 -1.010995431372837
C 5.193616787101239 -0.4745538097304965 -1.7341073722723213
C 4.110756741124011 0.39941334064399486 -2.0607265186654713
C 4.154310219347876 1.6692863767341217 -2.866688207362589
C 3.00478305827475 -0.14676281316098183 -1.4982405530929457
H -0.194294218787089 -3.560669388609058 1.2284678167786096
H 1.512708190083926 -4.178163711979916 1.1667628336085811
H -0.9181904843901408 -1.8569630098755447 0.39413716277832433
H -0.004763130911089482 1.7546505200867766 -0.9023084676039819
H -0.5250239462330585 0.766347950864033 -2.2790307092944313
H -2.7069131472756474 0.45560579314900995 -1.2930717676688777
H -2.145788630153094 2.1487131713362198 -1.5560040896743406
H -1.6649786719303201 2.3217593166211317 0.9099074477854306
H -1.2708038586269206 0.21425210682278234 1.8537957561086815
H -2.867125721979369 0.696277150486792 2.4149590298648334
H -2.699429076764279 -0.5410008736057463 1.0671996015243785
H -3.731171876842408 3.2052541757554787 0.15015546585740217
H -3.5264713383427675 3.0374199938095474 2.8398455794361124
H -5.834072213261331 2.0224402556151837 3.277008502795862
H -6.757925969832858 0.8142734188987732 1.029552328243319
H -5.078559555002758 1.0349344347663751 -0.8399698142799621
H 4.471125273389309 -3.1334389101308786 0.5437573605568956
H 3.114173138627813 -3.383507775302724 1.6161150292192983
H 3.1422689252403475 -4.331500166294656 0.08781041061090884
H 5.429385587669495 -2.2898150886285777 -0.6636506988042531
H 6.223158703646677 -0.33472261484319393 -2.027368906082584
H 4.9011443441328275 2.3219147438480445 -2.3829902619494447
H 4.458100074950273 1.4346842532477775 -3.8959423303823963
H 3.1678003175442173 2.1550394433278224 -2.7869260388935815
H 2.068029955308877 0.33307188108475505 -1.6151018859016284
