20

C -0.21772121977993156 -1.017622147697121 -1.639704219139567
C -0.2963805374203083 -0.14266042019018677 -0.6454537661418147
C 0.8191273733526958 0.8566570478351159 -0.5852326233315741
C 2.097096853872238 0.13060149406633276 -0.6519879277710685
C 2.810923909022072 0.3859694883081514 0.4161922659249626
C 2.0405524030263833 1.2905819825931517 1.2374533942855284
C 0.8834706328724868 1.5770439683508692 0.6774863524227113
C -1.3962825291758094 -0.13333270697887664 0.34326684060124946
C -2.7761554866105915 0.25836364815125984 -0.04042283172201942
C -2.484521992620559 -1.1911336199597446 0.1864830458470523
H -0.9397663916687682 -1.8071743227520305 -1.8292147888631682
H 0.6091028079006665 -1.0004859242828443 -2.35945695160217
H 2.3808697211821763 -0.5129699395611707 -1.4735889010552852
H 3.786834706167104 -0.030787009879459246 0.5955175769712456
H 2.3632040976939326 1.6927743459400968 2.1999386807483106
H 0.1377029028984247 2.2297120967072104 1.0994401270634802
H -1.0356737486825034 0.07785954130576583 1.376003716314793
H -3.4422300700194053 0.8216467476336585 0.6181460053229092
H -2.5436520479172167 -1.8290000553993744 -0.6914436183637687
H -2.7965013840929167 -1.6560442141900733 1.1665776224855486
