28

C -2.0270120002370464 -1.0853911489551509 0.9598456537703322
C -1.6487957908847533 -0.9326833590687784 -0.2879715762175309
C -2.5672648791238943 -1.348228640506566 -1.3843328744159646
C -3.8489398922493954 -1.905531713345652 -0.8302872047128154
C -0.3091369271126823 -0.34708101992892976 -0.5744179714858613
C -0.44047584938659773 0.8914736587585163 -1.362612196972411
C 0.012762737783414042 2.023934337382307 -0.8883448478450149
C 0.6508400080413774 2.081214933866162 0.41776178823041094
C 1.8704225150068214 1.690405786223377 0.634323052553229
C 3.0880012277166204 1.255784631155699 0.763654340683972
C 4.212414576152871 0.6040996067366076 0.8083995342117409
C 4.535600385641795 -0.3848586879440112 1.858702172123847
H -1.35953935632293 -0.7832079910188784 1.7738127397430887
H -3.0058310168594473 -1.513372177985467 1.1657433038611902
H -2.858183352351183 -0.4462013058375373 -1.9971748068711517
H -2.058264102185895 -2.0947727684186113 -2.035261842873807
H -4.385325483818297 -1.129169369574699 -0.28229872323091343
H -4.49201801689948 -2.149115591218632 -1.7240865484921135
H -3.6460811898352854 -2.8299238580941806 -0.2500556000992897
H 0.20136839673083828 -0.13811397265907044 0.3718250027855449
H 0.32204061307687404 -1.0776597103545056 -1.13450627405075
H -0.9063104427084927 0.8670242377460716 -2.323356421799229
H -0.060330859037677584 2.961757235991213 -1.430213590639579
H 0.07396304125068312 2.469286206701096 1.2413417568000293
H 4.94972402056464 0.7910146167792589 0.042819935724127615
H 3.5914919727690253 -0.9321537653056057 2.137257745947197
H 5.241316362390022 -1.1510025363437053 1.5262365335867973
H 4.8635633019106495 0.10615967967298798 2.803196919655175
