29

C -3.885544854842129 1.075473016933887 -2.087249908069003
C -3.1326414658435757 0.5295568114257462 -1.152346686563053
C -3.2672860813891074 0.9885442742431523 0.24929383172452285
C -2.1675803255529136 -0.5127553986502345 -1.4428139833281306
C -1.419617169965612 -1.051427827550779 -0.496591701990529
C -0.4281386264223743 -2.1180076014856755 -0.7769378249378264
C 0.6293085429801547 -2.194144020303847 0.25293753932929497
C 0.7807765196390153 -3.3088780817479626 0.9418179079722104
C 1.508107644090896 -1.0699179072581055 0.5256495006237124
C 1.414255811094649 0.07419554358806722 -0.12576559897168407
C 2.289527627436401 1.2055964127813692 0.14031976668445031
C 3.245110557978728 1.1519023652644933 1.065149763082799
C 4.139790514569 2.301460972596103 1.3406141185075962
H -4.609376075897904 1.8532304160429716 -1.8886150067180227
H -3.814949996671056 0.7639067834632691 -3.128183536867231
H -3.7748990292087097 0.2700532935741382 0.895471168255007
H -3.8037962796921887 1.9731079956742632 0.27385630804452343
H -2.2273824257656964 1.22898239161836 0.5964126736060559
H -1.5361744680888965 -0.7005966598172124 0.5190307958843365
H -0.9705511812262059 -3.0890271178038167 -0.8596122947632759
H -0.0047821369481224 -1.9384883237644754 -1.796535638737018
H 0.11701580607751857 -4.134385840092048 0.7235881812621913
H 1.5496333903987254 -3.396092844921187 1.7062636407262723
H 0.6627556126487452 0.19067584299707918 -0.8912398729846767
H 2.1895782269137682 2.128762229215621 -0.4080972291848562
H 3.4040136127969856 0.2596411425554442 1.65343223815324
H 4.118949684114786 2.598982525698066 2.40381816114297
H 5.170406851129024 1.9887863667202688 1.0802053249650607
H 3.82348971561412 3.1368467792500754 0.6861283631509553
