27

C -2.1700824001092696 -1.5956688178919796 -1.241486944969195
C -2.25078642989932 -0.5239492437332096 -0.43659489817037556
C -2.909462548922187 -0.7388977398269742 0.8839822446534679
C -4.149733059508554 0.19082864775936076 0.8376302357916466
C -1.772459970863498 0.7996652882387921 -0.8808851968937165
C -0.5032647625908656 1.1359776788641 -0.21266383804109906
C 0.06376893660318338 0.2654060757439461 0.5819395978981239
C 1.3372369442528904 0.6775504455972977 1.2213696022135443
C 2.3993151720207777 0.5839260336806406 0.4627702834236582
C 3.5509870209412635 0.5030134713112291 -0.12250773668678458
C 4.802889340704366 0.6341694692506289 -0.457005233398692
C 5.85776782714025 -0.3400380428049194 -0.0892135969161679
H -1.695668347948425 -1.4588142598793623 -2.2031000312129745
H -2.5525874767436774 -2.5687262817842846 -0.9716060546985092
H -2.3089359409866406 -0.5029898067295451 1.761286479334038
H -3.366512374572401 -1.7549001536674578 0.9282184128414966
H -4.619328585912512 0.09912944196641135 -0.1400775370713522
H -3.752307257680034 1.212238149303484 1.0049831729995846
H -4.806696409945627 -0.14843828322819386 1.6626458370490147
H -1.6611354060592842 0.8375764048213962 -2.0077080586737828
H -2.498182483663689 1.592670487730846 -0.5583230616793108
H -0.02517144611521956 2.10714262535105 -0.3713228632379793
H -0.3112420957620201 -0.7192888732612004 0.7795683365972836
H 5.068230671538008 1.5233197240216865 -1.0437729079360814
H 5.411212044685887 -1.072179471467348 0.6254292150221712
H 6.144805011518108 -0.8670118187927579 -1.020910960899253
H 6.717344027879565 0.12828884942667798 0.43093770953606764
