21

C 1.1508426857008809 1.9801328555793372 0.7856651832090172
C 0.8815742308768255 0.7626509136073283 0.3464759990390257
C 1.9161401730441112 -0.21820337451426935 0.05827567262018349
C 3.203439545659557 -0.03467559603582228 0.18985772173142967
C 4.209999074209983 -1.0701355236656198 -0.11887808504611118
C -0.5396965687997265 0.44062108866839333 0.15945366187337706
C -0.9088681139845127 -0.7526084571807435 -0.27647379092293
C -2.305788535441861 -1.0945172549186242 -0.4691643261995972
C -3.304261977999746 -0.2711465340379984 -0.2341839397023556
C -4.711402193474514 -0.6472359561846707 -0.43934345740317354
H 2.1622755213845197 2.311615923059916 0.9544356631574467
H 0.385180131686672 2.71184425167259 1.0009821703498336
H 3.565054147760717 0.9194959971927668 0.5419483922668145
H 5.085870562364871 -0.9552099564490787 0.5334332840588963
H 3.7554427743076215 -2.085119238487172 0.06102862123784618
H 4.555950776820804 -1.0217572936343917 -1.1786410375474317
H -1.318306005817386 1.1558722996819415 0.3682663325038278
H -2.548561128705036 -2.0826790274484632 -0.8267963408427327
H -5.178727046860919 -0.8044509206804077 0.5716831908245288
H -4.80278108099003 -1.5893264674913543 -1.0308658155053865
H -5.253376971742851 0.12673655869924982 -0.9971590997027987
