19

C -2.2782319468032304 1.821223387871227 0.40028478147503244
C -1.5416274822018015 0.7430844796545794 0.47771961457499723
C -1.9543458658571247 -0.4737937200036247 -0.2800047012701399
C -0.3264534860263837 0.6758449313521934 1.2769311581855083
C 0.3869745012343348 -0.4354588011531706 1.3255558542949584
C 1.1887727738986298 -1.4235446030376218 1.0747098534663557
C 1.9874298276054263 -1.4259874319919104 -0.15293714462741156
C 2.273092383279515 -0.05471814328347365 -0.700825130049883
H -1.9874300940616703 2.7027096524046352 0.9436207749391307
H -3.163918413268812 1.8221575590614179 -0.2009636006650568
H -1.4933427662282799 -1.3747772758234558 0.15540339261940136
H -1.6234140887104667 -0.38329597263347365 -1.3235607328339658
H -3.060929797808278 -0.5236482649424753 -0.29371596628997126
H 0.05675082781343359 1.4837138489020765 1.8502502663549656
H 1.450823194493789 -1.9790338822997522 -0.9551744758966528
H 2.9331892498622385 -1.9673276335385852 0.04454051855220499
H 3.2605991868393267 -0.1118693789473114 -1.2076797074791823
H 2.3473991632991047 0.6680846369605855 0.13141936576915678
H 1.5446628326323937 0.2366366114487318 -1.4786898496861705
