36

C 1.9002087064999886 -2.762998875146253 -0.3104875356988477
C 1.287196915869952 -1.6354074687494091 -0.28530939775122266
C 1.2872245943561442 -0.41436538973812 -1.0072684681895299
C 0.8062307861092894 0.6694353461262359 -1.0631649094701654
C 0.38605032091619845 1.9300358692467807 -1.2996479295343046
C 1.365266561677421 2.9186853819430016 -1.9419783991974457
C 2.5402486037930876 3.300960792266041 -1.2090221364364118
C 3.329227032212679 4.470278814158384 -1.7243023977814955
C 0.06012750069201864 -1.7722307017605816 0.7190688770910298
C 0.38536696270899007 -2.9850688558389247 1.6509798839393925
C -0.7792106983047425 -1.0054486527564384 0.9529699923378259
C -1.7468441800710626 0.14493645030726227 1.0902753575187918
C -2.9567320515973083 -0.046359280769724884 1.3389845134398521
C -3.1745728335918715 -1.44607419946829 1.4571696691689773
C -4.51073767718302 -2.110952129531991 1.7009941045424077
C -2.1046475993897555 -2.0673371372624594 1.275099030902081
H 2.6472562165084628 -2.8349729475129863 -1.1316309849556905
H 1.8232371068978839 -3.5958968772270894 0.3323034674933378
H 2.108937255653139 -0.5637800242304539 -1.8672843864896844
H -0.5227890337434368 2.023127628210846 -1.974585331531115
H -0.04538330969465395 2.438247104205551 -0.3287108272611455
H 0.7770209729967167 3.759703866592025 -2.3166424426038685
H 1.7239634679109148 2.3488380160605606 -2.8919840508610832
H 2.964987055538889 2.7839097258043504 -0.3801903057517609
H 4.038796899731035 4.118415606944895 -2.4725438442255734
H 2.7216661234204946 5.305685041209361 -2.1154064470279166
H 3.959311605629645 4.843401427761346 -0.8264378581519034
H -0.2919870294538118 -2.7851491829666193 2.5602571931810307
H 1.3888393011616589 -2.9125640501869263 2.0436004823120277
H -0.005416225564857183 -3.8940620214817416 1.1878211913652792
H -1.256446797504483 1.1517665663446532 0.961031851303476
H -3.7907278276841776 0.6886376147277719 1.4629852241361505
H -5.005019882236551 -1.6559047482160028 2.5469947229281793
H -5.088419152348488 -1.9617580261838985 0.7431132638867595
H -4.365493047501551 -3.2024859824767153 1.8625020090150417
H -1.8567366456814614 -3.0939907223722094 1.2604467864141122
