29

C 2.7580542690484133 -0.2498335677355112 -0.360533321532251
C 3.0683923579418497 -0.3625539208600079 0.9123957686795415
C 4.479420094842295 -0.8582024509046571 1.2665888495965734
C 2.2597702176495376 -0.08080920662892814 2.048018339399573
C 1.0781422007151948 0.335146293927567 2.1429216497106247
C 0.18399327488137446 0.6530613252155064 1.0536800559783783
C 0.12976037405469784 1.9441045435048945 0.5087228491715535
C -0.7247183467288557 2.2661989135739598 -0.5116211629442551
C -1.5778661161882044 1.2974813882777618 -1.0427248763955208
C -1.5360799260193743 0.03345536524236586 -0.5210641318399243
C -0.6623502822237889 -0.28617708937114633 0.5185954095610124
C -2.5296609555466056 -0.7824525601597297 -1.2576216520821275
C -3.5471395184313 -1.2226514427587847 -0.21724021618725328
C -3.129498465781008 0.12962048274566218 -2.2331759025694216
C -2.576685083205217 1.3086983651493254 -2.0974047468208483
H 1.8329902777940907 0.0756566168890603 -0.7725826403496142
H 3.5209289093553537 -0.5148426426871149 -1.1121086321241533
H 4.8282140936681595 -1.403465714372589 0.37644169256731136
H 5.105685824127463 -0.024530485518773185 1.5817070168421756
H 4.360784168890159 -1.5667669029713727 2.1182818884720533
H 0.6316046673814956 0.48970146622176497 3.1493257618011152
H 0.8029127623045628 2.6758271527327295 0.9401076471375487
H -0.7705465193256462 3.2544899921152095 -0.9333298975784499
H -0.6654050413277954 -1.307182744012298 0.9012600784463091
H -2.05326335022201 -1.6686420970762863 -1.7426303409618917
H -3.154960321605168 -2.1163449861330696 0.29467147533542437
H -3.670420070033848 -0.3959411326048536 0.50889396430046
H -4.524574232988525 -1.4528480233888852 -0.6537942211516041
H -3.917485263029484 -0.17019693841255984 -2.9485856274842956
