16

C -1.139482143656451 -0.857685589182635 -1.1409701718602772
C -1.1316984461292483 -0.17028294159967036 -0.008383490914044217
C -2.4133935960131283 0.27828026623427066 0.5945377282138138
C 0.1529699794117804 0.15883988230096327 0.6693961978880177
C 1.2835258929518536 -0.02756922624803461 -0.3239716576554308
C 2.5877702580278497 0.5122833591760653 0.1855271667096369
H -2.0826845982678917 -1.0866610887962616 -1.617767016859706
H -0.24913780037666317 -1.2181813273395068 -1.6403015904286282
H -2.2780331574814077 1.310302411417495 0.9878358364902935
H -2.718662797891666 -0.3938008881138302 1.4494442180097304
H -3.251042904891487 0.23350746995347121 -0.13350660873479556
H 1.4098693303596856 -1.1254389786002867 -0.4545799752173054
H 1.0173271643159647 0.36825486038433297 -1.3270949585483767
H 3.026756199472382 1.1772871487688574 -0.5856388662139141
H 2.4657532230392603 1.1294068154344854 1.0995929532980178
H 3.32016339713059 -0.2885421737922309 0.4332324397530557
