20

C 1.7532370032519755 -0.9080443114989641 1.3688878215837972
C 1.3177546734616907 -0.5622905074885914 0.17693121134990875
C 2.2382247731712037 0.14913330127330965 -0.7400088030212166
C -0.08357620792839066 -0.9166044489481568 -0.16346501713015546
C -0.9432482763602498 0.30160092194140864 -0.40982791738946844
C -2.3409314964907355 -0.22481030579608985 -0.7447985075262904
C -1.1161200472386954 1.1154182367210386 0.873547605929574
H 1.1443530959708612 -1.4319943596140645 2.102553369347289
H 2.7691273430451955 -0.6613576996933279 1.640012355590228
H 2.7849256030804166 -0.6529201595607617 -1.3132663902213575
H 3.006217594787934 0.678687737075742 -0.1450724189630436
H 1.7092515943074995 0.8192835142852857 -1.4474075003237528
H -0.11025881088315305 -1.521132521283952 -1.0919970914827948
H -0.5675591387746372 0.9487443423635746 -1.2030593676634642
H -2.666630230940873 -0.7845692479410817 0.16284274754489075
H -3.046887125142583 0.5952960136363127 -0.9491732932433042
H -2.2264289892222875 -0.9301188730086305 -1.583212294692048
H -1.6431844203947499 0.5034068013098473 1.6366439096668763
H -1.8025962598064187 1.9535485952708025 0.5976503913356236
H -0.17567067789394367 1.5287229709562549 1.2322191893086973
