27

C 2.268681260343869 2.381896801932891 -0.7753495224404137
C 1.3140572162815105 1.5147302093119357 -0.46841591245257125
C 1.6900043616243323 0.08804463811730288 -0.5045273956657595
C 2.7799440304002827 -0.13248127712054575 0.5253242278404513
C 3.2465823289866256 -1.5545338723160569 0.5814622785095032
C 0.03903916635069061 1.9617830810275225 -0.13396200095595512
C -0.7824466915210709 0.9952311522348892 0.14091961793269164
C -1.769537409758441 0.1447497754719712 0.1618533430723291
C -2.0871210225010968 -0.48686288287515816 1.365901247703476
C -3.219978033308123 -1.1958540421252246 1.1967480256695229
C -3.7309470615732105 -1.0645402971322964 -0.1821630072927657
C -2.668244271533864 -0.3138336368463694 -0.8959409887796934
H 3.274245598732393 2.0933370551494863 -1.040984756206713
H 2.0749507214638405 3.443853905710967 -0.772459769001149
H 0.8351812226490768 -0.5959290992023963 -0.3397305140256664
H 3.648296020299498 0.5105791590096221 0.22123499780990116
H 2.4684351211618742 0.17227498798370208 1.5463090815278122
H 2.621448130014997 -2.129591019178215 1.3103358127210094
H 4.30195422815276 -1.5534507196572176 0.9319582582735324
H 3.199375540169494 -1.982832442335082 -0.4240429688192661
H -0.22685400397193758 2.9924020180080153 -0.10973156024570498
H -1.6134276058844472 -0.5108624706592713 2.363164834322672
H -3.7182629301111065 -1.7909601319942094 1.9382912082979662
H -3.9108513494588393 -2.081911537622544 -0.5858670001777042
H -4.724552785841558 -0.5343694854254344 -0.19400696279642363
H -3.13998539945535 0.582383908092509 -1.35224477348468
H -2.169986381712139 -0.953253777560776 -1.6549787498193045
