26

C 2.2973422721716417 1.6746676063496948 0.06290304283746004
C 2.113878599861161 0.4315741881517114 0.5277707163961892
C 3.188251458101922 -0.5731403777320445 0.2908675047459791
C 0.8737804306963709 0.1131048879852352 1.2446772452733899
C -0.12354917807849357 -0.6098690380773052 0.4387319634233866
C -1.366414050398448 -0.2278636839130742 0.2596122084310011
C -2.0684069618135004 0.9810847656014734 0.7972876218044228
C -2.5629668529439362 1.832869583692459 -0.35257718613214084
C -2.0256507867603726 -1.2034601072167106 -0.5932597099190674
C -1.1985572053196176 -2.170857628871203 -0.9327999368417388
C 0.1116270004454219 -1.8697331805311481 -0.291261742457838
H 3.201947056039719 1.9629757799423964 -0.47685557413500207
H 1.5590403480763033 2.4546122095177445 0.1988478571032861
H 3.9833395727364076 -0.3490475418014648 1.0543557944529842
H 3.5874915226255064 -0.3617699821532274 -0.734189900883861
H 2.825678520285616 -1.5914743059630696 0.4217671234892553
H 0.9984001142584502 -0.2534546890281936 2.262405876875439
H -2.866116909110253 0.719255099476924 1.5081012829710856
H -1.3194084820344776 1.581891503021595 1.3749994946306043
H -1.8750714167706242 2.692626245100039 -0.5149994651158618
H -2.645857208516938 1.1929759071922619 -1.2523049531305899
H -3.5467811851999773 2.246269151914842 -0.04647325854749599
H -3.067734609162494 -1.1629190621078205 -0.9233864427051666
H -1.3680944305316782 -3.041707054089366 -1.5509052885329322
H 0.36833629890235925 -2.681803464435113 0.3910571326863028
H 0.9254960824400278 -1.7868068120265552 -1.038049748109373
