18

C -2.159861548321856 -0.11586236605242327 -1.2084918088423662
C -1.4410831556496246 -0.1602837261203418 -0.09970546095401922
C -2.163449591868262 -0.2160274062222708 1.1986514742491226
C 0.03252140592978114 -0.1544233943702958 -0.157434325182467
C 0.6357312108012654 1.002560360751319 0.5513693051369066
C 1.9333809298284212 1.0318560353133277 0.8024164368075364
C 2.8128691247126305 -0.0706966716528356 0.39127974452846087
H -1.642400143203854 -0.07514987985100492 -2.157414649165933
H -3.240418614690534 -0.11755116250205067 -1.2295744163333093
H -2.447291851839797 0.8183311594031106 1.5021620728339609
H -1.5678546671235754 -0.7278680474953289 1.9814147833415543
H -3.1479206693703032 -0.7457719992666467 1.0352883024549027
H 0.4569119933494904 -1.069904059009549 0.31144552830200706
H 0.3959883432200754 -0.14088559280551072 -1.2039435330640682
H 2.3408663121496827 1.8855518655602983 1.3186141135253624
H 3.110093353476512 -0.7488059995482262 1.2096104737527575
H 2.326097344476639 -0.6866973029854438 -0.40855396292314544
H 3.765820224119264 0.2916281868544217 -0.08013571387944277
