23

C -1.3003686139647133 -1.7451674024040993 -0.33095502744636157
C -0.5647199856755633 -0.6542330157584427 -0.24056982784039108
C -1.1760752843660254 0.7033417254689096 -0.33632631280242264
C -2.6780145008851264 0.6463067076983836 -0.24530856186982122
C -3.1904742227033043 0.06216601542652096 1.0184707174192926
C 0.8721167100575787 -0.7763931146927113 -0.04334454073479898
C 1.6304062833336415 0.3262776116242956 0.05001157463772498
C 3.085725681852178 0.1820837273227091 0.2499711827270392
C 3.797685675878609 1.177375853588329 -0.6583541771249758
H -0.8052467027016136 -2.6977611097843814 -0.25473826906285674
H -2.37042180058843 -1.726720878613492 -0.47704289847807413
H -0.9443450337742787 1.054349800714568 -1.383667284927167
H -3.0456601563799377 1.6902041399646819 -0.32559781815074784
H -3.121775587756246 0.10381989692179674 -1.1226643123613176
H -3.608787313076456 0.8550992643566544 1.7020296454712276
H -2.4679533426505116 -0.5040923235693847 1.612612298795562
H -4.065948356301353 -0.6178430713104572 0.8290182303433619
H 1.3145823314328227 -1.7498452090268661 0.02600391799819987
H 3.404718378179804 -0.8607560187749721 -0.022961202705918428
H 3.345054203295937 0.3358558166279627 1.3033032366119695
H 4.135120655260243 2.04040693545364 -0.0480790330029546
H 4.647325954377277 0.6558247203668923 -1.1430653413575633
H 3.107055027154579 1.4996999283998869 -1.4765698346432674
