18

C -1.6603202632492038 1.5613077924021836 -0.27693979165088106
C -1.3243962782209397 0.3175410709999321 0.022925656864343488
C -2.1316288841842916 -0.8382171920923457 -0.4313174475432268
C -0.11025252315819307 0.06255976590571126 0.834224206485631
C 0.725996906819011 -1.0014354221879418 0.2114801988639369
C 1.9772518928353013 -0.7111562622462152 -0.09142477413134473
C 2.545368614149136 0.619432728020616 0.1715719127192166
H -2.5480747460874085 1.781971593629157 -0.8723456891493531
H -1.08750694374158 2.423538285930131 0.042680934392977925
H -2.5769471407749394 -1.3166600041853485 0.4668716268404559
H -2.88893017668794 -0.470044681060052 -1.1488948905248217
H -1.471871382027756 -1.5852504466031532 -0.9126573628783194
H -0.3857930863252505 -0.3226154994211628 1.8529618868194064
H 0.3195985493485942 -1.995887490070014 0.009151641277431555
H 2.5983750374013495 -1.4772067451366204 -0.5458714069524474
H 1.7751814765476053 1.4174774875319498 0.01234633377410592
H 3.344661522200454 0.8082192465222731 -0.570017173499946
H 2.899287425155279 0.7264257720610807 1.225254138293001
