12

C -0.19469512531778219 1.3885663974069635 -0.5058620485502529
C -0.020243315408091593 0.15236912971973268 -0.05995342751458677
C -1.1498876878869289 -0.8126922384805829 -0.034938362917388964
C 1.3316690837196914 -0.28861377737371724 0.42828942602529857
H -1.1842320426186645 1.6634479612961683 -0.847680778558451
H 0.585572695740019 2.1209878018746724 -0.5445032880148613
H -1.9747410230389149 -0.4182893550445444 -0.6583622488470958
H -0.8758209841045975 -1.8008599057910042 -0.47251517114429936
H -1.458832092577471 -0.9103056233545779 1.0348839437456296
H 1.3535178109106183 -1.38648503365269 0.45458089547781944
H 1.4514938630699603 0.16251024128779296 1.435121115712722
H 2.13619881751217 0.12936440211178976 -0.22906005541453464
