27

C 0.28830026831996697 1.562944100510892 -0.2869706797031818
C 0.27041623384749 0.27647479761841753 -0.15007008058974813
C 1.3286819966647496 -0.5858681173262982 0.33062172142261115
C 2.352702080829631 -0.04016093234710711 0.8656745419467154
C 3.4403393948896692 0.5673834804163245 1.264202923413277
C 4.38628190392875 0.8997589882803343 0.21609316934123127
C 1.3212685193708502 -2.0372274310914946 0.23943666634403854
C 0.2990305346267771 -2.385480167642358 -0.7951530331850238
C -0.7140220363678531 -1.6356831270181276 -1.1210517450357191
C -0.9494949385331763 -0.48437293073866694 -0.5128458577291558
C -2.2793529204383063 -0.02942532937416528 -0.19274332187410526
C -2.6847156587449628 1.0361357265056506 0.4421065999452079
C -4.190771008928198 1.073399993600146 0.5238407732800601
C -4.5676558527168325 -0.16725205506123478 -0.18276953747103664
C -3.473604611644923 -0.7641043995656644 -0.5727555449930434
H 1.1985145137423376 2.106483262847103 -0.01329017875612153
H -0.535765650350907 2.128450571703469 -0.6780548573339455
H 3.452830205986133 0.7201784120747042 2.300825661020809
H 3.926339406020885 1.2382687259937097 -0.7309225962924044
H 5.020323172472392 1.740649680879125 0.5683905760389779
H 5.0848223199898515 0.03970226727117766 0.07594987309115647
H 2.2746680906521517 -2.479656913838401 -0.10540802507383741
H 0.39160186663012264 -3.3251854472107056 -1.3212601367589447
H -2.1136706346189826 1.8233460628242062 0.8947814851185589
H -4.459888053622548 0.9689520297021806 1.5841042620239405
H -5.575357448150855 -0.5303238262390706 -0.3543356305375555
H -3.491821693854386 -1.7173874227742996 -1.1261220596225057
