27

C 0.4736982953531119 -1.5682977287901045 0.09334368809775734
C 0.350363128229229 -0.28629045965476324 0.19803622194946569
C 1.4349114534447642 0.5478837721084417 0.7120977570633826
C 2.8021815313662755 0.32360537428647734 0.5902871843340606
C 3.5422113849121577 -0.5544287940056178 0.05185431007128322
C 5.046421623755035 -0.3410186580001903 0.20842408078278016
C 0.9951652604604393 1.6740936912189825 1.3102066312961482
C 0.12516100503806338 2.355401202687268 0.5803286206021242
C -1.0466329473551488 1.6288515048278647 0.036004449352614036
C -0.951565430131631 0.3249100324150564 -0.15476447483213585
C -2.037561005322033 -0.5251524933664337 -0.6828772884588762
C -3.003900400224375 0.300872454201204 -1.4896808496506089
C -4.193590304749369 0.15788325355727836 -0.9733445817794981
C -4.11820294546379 -0.7420200511841952 0.1769259636382922
C -2.870406126905802 -1.1398954245659336 0.3483773429888528
H 1.3768230926939093 -2.064245483839262 0.3836986841073312
H -0.32363916608526316 -2.1643657897701374 -0.2888099110386461
H 3.295878794774632 -1.4378171812338378 -0.5231714630862154
H 5.58932035155524 -0.8865692776716811 -0.56515623597397
H 5.358974396609 -0.5704798197069395 1.240844826724536
H 5.1886285192332835 0.7461983960491271 -0.03502069940962611
H 0.28318311605090124 3.379515138137208 0.40783163033351244
H -1.9564774976033852 2.1269781016866163 -0.2046251222989932
H -2.743365831033108 0.8942606803355283 -2.3342769232611698
H -5.0933234807110495 0.6312394248945465 -1.3396496882043332
H -4.9912666795719245 -1.004741532407705 0.7612051182193487
H -2.532990138319222 -1.8063703322086329 1.1221164748282713
