13

C 2.046329180092172 0.03423541232442204 0.19946558955201765
C 0.7597508865404766 -0.10504249828762477 -0.05458754405387462
C -0.033198982673524086 -1.3575794749594807 -0.20939876464688112
C -1.3526583798074352 -0.9166761254744714 0.37481458979133203
C -1.4689888310798536 0.3921563404193626 0.347856073650316
C -0.24679610904303959 0.9569917809388179 -0.2551406939703351
H 2.484052207534439 1.0210860576180445 0.28447018719225264
H 2.7072959927782327 -0.8105156103936143 0.33137656015979183
H -0.16428546697839677 -1.583384340499728 -1.2970154492558754
H -2.0801569659549703 -1.6182220489772243 0.7552882852276719
H -2.311579938737784 1.018428141904095 0.7006963362530099
H 0.04981120729463522 1.9243401702295506 0.18995495757855643
H -0.38957479996501015 1.0441821951578416 -1.367780127477896
