17

C -3.4139093488133065 0.7826932013887533 0.6801865397606958
C -2.355007447320993 0.3071788775815736 0.05808619442169629
C -1.7517932043533642 -0.6018345241484383 -0.9597586011450762
C -0.8688406169023042 0.30688245640409983 -0.12127462497575238
C -0.062190200872872546 -0.45356687606508767 0.8880137182374458
C 1.1904111574239842 -0.7340578662535291 0.5670112420321286
C 2.3628743696592136 -0.845770397194422 0.010723977946018941
C 3.3217478243008727 0.2594487224054175 0.20368638570284484
H -3.295083607281319 1.535551602796527 1.4485904026198961
H -4.42586546630453 0.4577097168197592 0.4643945622072006
H -1.7492107161339014 -1.6810233868878663 -0.7893011899409055
H -1.885979099695739 -0.33611676587519507 -2.0399162785502396
H -0.38653297268408165 1.116452213320986 -0.6809917584523663
H 2.5855745413297266 -1.7216192007344642 -0.5621043269186269
H 2.808532726128066 1.2467180108682177 0.32448446477811105
H 4.054327674448739 0.316568784390229 -0.6503529586695259
H 3.8709443870718134 0.044785431183518146 1.1585222509459647
