17

C 2.469288420923754 -1.069023943151266 0.5615653777982722
C 1.4439378864352606 -0.30554421604212884 0.23157800968195622
C 1.6366253823390964 1.096642144034907 -0.19554581303963528
C 0.6169224290486316 1.8392468569339182 -0.5184242148568873
C -0.7611228508553153 1.398909248202896 -0.497832300155545
C -0.9230340126894789 0.011704717550308708 -0.07279291693910679
C -2.3278864465575744 -0.5582889130749813 -0.013477067111821416
C 0.07322846404367969 -0.7658345955463282 0.2591200877655244
H 2.2868727122045707 -2.0872740477759835 0.8680748968009244
H 3.4820821949717455 -0.6925468967875712 0.5297317183750619
H 2.6720841342746366 1.442864349658164 -0.2158749481925219
H -1.1304059024609725 1.4066074740528745 -1.585949566999531
H -1.4333340580828375 2.0975181932646665 0.08425582058893559
H -2.612202053499603 -0.9479460710557298 -1.0119010711937981
H -2.992237649277874 0.2802789896738953 0.267898959596174
H -2.3966362498550167 -1.3471437650720166 0.7384202307889242
H -0.10418240096269031 -1.8001695248656555 0.5711527970930802
