20

C 3.454552307688263 0.8259033722647916 -0.6837412034237512
C 2.3652132787301565 0.32240676048626166 -0.1478582490870101
C 1.7780014223102656 -0.709927820911035 0.7897596346545005
C 0.9080756794158443 0.25002318581957467 0.05644803462238592
C 0.02237946647638229 -0.29903643521049167 -1.0037004690835338
C -1.4033321657242075 -0.31267486781602066 -0.6293982529694325
C -1.8773345426801036 0.09679343637330172 0.5265874889185881
C -3.3274378097761352 0.0697750724358532 0.8719197571594531
H 4.455433991399635 0.46826840251798996 -0.4767829560866224
H 3.370451170014233 1.65290151439135 -1.380612460260552
H 1.8307773832398784 -1.7489589003434776 0.44037785427269094
H 1.8820887345658355 -0.5182988031737696 1.876940664078978
H 0.5062253279588942 1.1496401410734365 0.6099257193610076
H 0.2765386684540585 -1.3746917928484315 -1.2498908884680726
H 0.17904460045249887 0.24381982743324385 -1.9850673103592762
H -2.1783590352416584 -0.6845664745888143 -1.3342003305159769
H -1.1952545922180213 0.4669234847828119 1.2736364037775247
H -3.7221066317863705 1.0709099821989905 1.1288031717165181
H -3.8612335747449222 -0.3223478234159257 -0.012480258402016301
H -3.463723678534507 -0.6468622614696035 1.7104029185494607
