14

C 1.9233215834158597 0.10859344528036873 -0.5324053181653277
C 0.7119102834064351 0.13282092012211666 -0.03955891075114452
C 0.2263492113857828 1.3436836182773673 0.6797738015620518
C -1.1794596634424979 1.1534649380336117 1.0875904801330931
C -1.940966085627653 0.4653961482380429 0.3018968804338778
C -1.5685598112587025 -0.7363725714640424 -0.02156490066371077
C -0.1506543950621897 -1.06663989836846 -0.21720754642684426
H 2.2781108211912047 -0.7579316438354732 -1.0500865730000715
H 2.565726725365789 0.9601650680431788 -0.4183223030766953
H 0.8521946678315495 1.6255600341734193 1.5249612584494905
H -1.5894051917267122 1.553567077784119 1.99040122454042
H -2.315560249246535 -1.4909861619529978 -0.14507454194944425
H -0.03603169111700734 -1.4592657123001649 -1.2660832722277835
H 0.2230237948883983 -1.8320552620242085 0.48879962876573324
