12

C -1.8143371602489182 -0.6344990146038342 -0.584313549136302
C -0.6607782425425356 -0.5430435359439414 0.046547037467989494
C 0.5411256262610818 -1.3169655802631026 0.5814353915510962
C 0.457057634410312 0.13692901972928126 0.7411301632170271
C 1.2398445295180116 1.0846728491542559 -0.11371401384804457
H -2.3742610636486785 0.29153739009751867 -0.7538510401681571
H -2.158144056956392 -1.5998753582108391 -0.9044731831658785
H 0.24663848681344339 -1.970009085413575 1.415811270160003
H 0.3001964803440507 0.4937567425528117 1.8000443570921658
H 1.606688039106756 0.5932691898975261 -1.0306567600782104
H 2.0600312004711494 1.5581365858187544 0.47957369977475506
H 0.5559385264828666 1.9060907971929835 -0.46164773716389523
