17

C 2.9074076179969266 0.32565846830312906 -0.5501502408100138
C 1.59804406206141 0.23054960708799108 -0.3938001740371379
C 0.7801113912825736 1.378208640276103 -0.8001719319373449
C -0.5268059062279874 1.3004031293170946 -0.6512793569752409
C -1.1620587070689594 0.11062995616473413 -0.09789326015990939
C -2.648110205371133 0.10676130501169064 0.03608418875157439
C -0.4348686592761907 -0.9175345310443491 0.2666611844998079
C 1.0368772290009867 -1.0036992741823063 0.1715564851962484
H 3.3290552764138446 1.2156233384186654 -0.9593449148709645
H 3.5588931653602502 -0.4771653744151056 -0.27294519752381163
H -1.1812469869886486 2.1410817186513733 -0.9440299699056197
H -3.008445103877449 -0.720074738589389 0.6800147452610494
H -2.9181240701660838 1.0495265957340112 0.5553626389293657
H -3.092317421375366 0.042056895830965085 -0.9681438496169769
H -1.0203078860154144 -1.7665539307607017 0.6733104567718097
H 1.314310562979167 -1.9123998803980375 -0.4018078495703518
H 1.4675856412720771 -1.1030719254058345 1.210829582549716
