24

C -2.474656541895177 -1.832018115344494 0.5015433184201578
C -1.8713826001858536 -0.681926097626414 0.47119054632463797
C -2.5089811273363187 0.49435899688771223 -0.17347214318517234
C -1.6911734169124895 1.7402280889352149 -0.08071705098253444
C -0.23358534189846758 1.5208005989939453 -0.4091799647672852
C 0.2917352924691776 0.2873276867505296 0.16038787238413224
C 1.5067903569726944 -0.0474745721866144 -0.18160791758737044
C 2.8023403201576813 -0.23204460186617576 -0.08503490273383413
C 4.17491692572679 -0.07639690974380019 0.4751144998369523
C 3.913686778679572 -0.9160956863828399 -0.6864663246263812
C -0.5372441676595855 -0.5154642018918437 1.0766102693681956
H -2.0134989115364865 -2.68550972150738 0.9685777149796606
H -3.4498786483911466 -1.9599011049205601 0.060761805349645114
H -2.803686009002438 0.2651587463921887 -1.2186901491157691
H -3.467104802199054 0.6730055102269663 0.3751663668853776
H -2.079987021077971 2.4575985747139617 -0.8519014993539334
H -1.8469600886230577 2.226611076189251 0.8987355034652145
H 0.30453613774919813 2.4391284463154044 -0.035727510289925685
H -0.08527088487626289 1.555164548211693 -1.5258601352564498
H 4.423911541288685 -0.5230288850762507 1.436144933473719
H 4.221896375014345 -0.6207687638646631 -1.7249170272623704
H 4.067606179707154 -2.0217934608358203 -0.5394438949919608
H -0.010627009196681466 -1.4997386298853488 1.2025747082026348
H -0.6333833369743883 -0.047221522484590446 2.0833770277739783
