24

C -1.3026029456403618 1.998922139079362 1.381481267723611
C -1.191259476588737 0.9431572547894679 0.6237302909335651
C -2.399000370981184 0.23309069262726767 0.11720297215264966
C -2.0919273825641254 -1.2502093216152967 0.1309000122055647
C -1.0910563637433384 -1.4764240236874595 -1.0072236101418126
C 0.14750207608368238 -0.7396509734238254 -0.5986101423131193
C 1.2903168609457782 -1.2035933052248762 -1.0544718671030422
C 2.534912691325007 -0.5593302547393914 -0.7138235729295442
C 3.892876457336145 -0.47032076112335747 -0.7891962457324836
C 3.2390647787707625 0.5395911814129034 0.013691812892179703
C 0.15747181775245722 0.4437451779028867 0.2620735884118003
H -0.4383565140849818 2.524241367664356 1.7562967614204346
H -2.280813633542893 2.367850020218031 1.6485459953934936
H -3.3008154248670687 0.47516508936127005 0.7127467175341351
H -2.553494210257061 0.5664624031143033 -0.9326782644980682
H -2.97777351604609 -1.8692436004457889 -0.017556918357457957
H -1.526583865328445 -1.489773664811848 1.064298738796034
H -1.554076647272375 -1.020488853715684 -1.911622525560743
H -0.913368046438177 -2.535090541058271 -1.197173431766388
H 4.734885205457724 -0.9908554000257708 -1.2551098971985073
H 3.0939793491267475 1.5766688582146473 -0.3957459190130302
H 3.139324935765286 0.42979792750272566 1.1263777852857408
H 0.7191859803161701 1.3036622189574678 -0.18942947814402694
H 0.6716082444744848 0.2026263690270504 1.2252959300094945
