29

C 0.9301695052656388 -2.3576410815553093 0.16383865838449604
C 0.5889972299620282 -1.0874065296082502 0.12205318830207094
C 1.4008966989210203 0.031149134329711625 0.4535349044113399
C 2.623886840610572 -0.05487606513883803 0.8509272416232085
C 3.912579711603847 -0.12109849630461357 1.1277468083051336
C 4.80886444289118 -0.0718748887761624 -0.006912170305271766
C 0.6811554346374974 1.2441329138125212 0.28340146951351336
C -0.5593046169690427 0.9394721020223729 -0.14445257015925395
C -1.4916252036880857 2.037173068307563 -0.3904949593022701
C -2.6017999653743122 1.8999082867419985 0.629978770265532
C -3.7073621600385263 1.043663842093976 0.18549025612481404
C -3.849756205299592 -0.08296249875086296 -0.4568740006768458
C -3.080985197531554 -1.134003801106764 -1.0958760370126615
C -1.6893630937385182 -1.3087423640112397 -0.6443322265123628
C -0.7024951507489269 -0.5164949450197284 -0.27357703122222576
H 0.3139299765385977 -3.1920458557932005 -0.08694483157431311
H 1.9458154597250232 -2.627968756991601 0.4849532374065626
H 4.0785912442198144 -0.2012279732523149 2.1607972263698514
H 4.586722541350529 0.8422224700763827 -0.6038445232048285
H 4.608466423450342 -0.9422649814691637 -0.6644102082588862
H 5.885778184103955 -0.018269485104751706 0.28122535795739195
H 0.9943034729860475 2.2712918078783213 0.44482681103848515
H -1.9039596764269848 1.9630960133873727 -1.4131671694495331
H -0.9744397322356194 3.01302862109815 -0.29006470102332976
H -2.2212190014724884 1.680361922035289 1.6285475711593538
H -4.656841293673032 1.5190867808131432 0.5008111040664175
H -4.931158232488299 -0.30786078830167335 -0.5386959102407157
H -3.608052460502919 -2.1071338906963706 -0.9731995325594694
H -1.3817951760785443 -2.3527145607155195 -0.5999759688757927
