21

C 3.970801199874689 0.3579398028579519 0.782314939139736
C 2.811386030483858 -0.08549417462734143 0.3984362364216612
C 2.4622096759821033 -1.4389538996709403 -0.018828488464579227
C 1.1585365558299383 -1.492691657294456 -0.33585942177481654
C 0.5440652401075909 -0.23416497626729055 -0.16661493293426285
C -0.7218905651324136 -0.11397072291579835 -0.4262463083031637
C -1.8923433769523537 0.3540467099934295 -0.7601016233327456
C -2.815520567898998 0.2896249372537645 0.32555473987428313
C -4.2197540104657705 0.5736407514455558 -0.16494368889522318
C 1.5582712500558433 0.7200451913779251 0.3012197701617916
H 4.082456331135697 1.3920271709395058 1.064428395898463
H 4.838459462378743 -0.3039268860009426 0.8238705390405632
H 3.1757232452147948 -2.2373339032598145 -0.05068084254011592
H 0.7543763367559152 -2.4583644436768446 -0.6697183913944839
H -2.1422190836262467 0.7362587528073018 -1.7021276679384094
H -2.860467319807382 -0.6643828276491215 0.8829010766904982
H -4.55263375817155 -0.12751905545688708 -0.9490408603391675
H -4.197216581906894 1.6368107915461196 -0.5397808468800624
H -4.948595479722167 0.48300571502166295 0.6738198188994705
H 1.7004868703967062 1.583427456311582 -0.3791010867960492
H 1.2938685454686 1.0299752672645965 1.3314993787615168
