17

C -2.10721291959074 -1.6450157450197525 -0.5401334492719317
C -1.2915512532230577 -0.6466676735251049 -0.25802177538909704
C -1.8222508305005107 0.6857993540165223 0.07993188017716929
C -0.7802846636970973 1.6806414943841301 0.366606198833863
C 0.5158531215907637 1.4671090914930585 0.3413509605680975
C 1.0225476018535051 0.143742853685394 0.005189328923479106
C 2.5044357172505656 -0.0866950471852875 -0.02009244756533379
C 0.16721205817347073 -0.8228291283719593 -0.2695814863327708
H -1.763473066723853 -2.630737336400051 -0.7913080268206119
H -3.1676230257916873 -1.4769035515426603 -0.5211483479351624
H -2.546469888385265 0.6258332325044493 0.9114703890189872
H -1.1181452746513874 2.6773944655578337 0.6208574856923931
H 1.2325108667852243 2.271323391236826 0.5700795480348434
H 2.730355823239191 -1.169274309057384 -0.0782462594199322
H 2.983433601161323 0.43696815539148376 -0.8573116569910092
H 2.887673320988407 0.2899571799162816 0.9580494073243251
H 0.5529888115211397 -1.8006464270838067 -0.5176917488473135
