20

C 3.1966398106368104 -0.4915777214829897 0.1521568012253408
C 2.001145948035595 0.006521305155873763 -0.11703003311264737
C 1.651428762380238 1.2517551043552357 -0.7794633000286983
C 0.3101906457088015 1.4069573484693305 -0.797967471048285
C -0.2698361217940591 0.3303758239221407 -0.10574363302102738
C -1.562386701445765 -0.18576009468343116 0.08996415908872969
C -2.8762775698889977 0.4235450592191859 -0.19994370427452932
C -1.3635300715440064 -1.428883510143716 0.6296934376296487
C 0.07318223105978817 -1.6965520567794838 0.7233546081502545
C 0.7657313328047617 -0.6621495902458235 0.2310981972437285
H 3.276984762336591 -1.4341190991300479 0.6528204979238491
H 4.096536249331496 0.03577327461103934 -0.12432877032909116
H 2.3409397248214225 1.9672245471193885 -1.2040541824312379
H -0.16464151118537182 2.2898907948077136 -1.312124078554994
H -0.20044285058284791 0.9597954455362643 1.091926246294557
H -2.7568633958694355 0.9996993920733154 -1.1574063193510906
H -3.1608590938842025 1.1790511295920592 0.5612288807930466
H -3.6740085012723704 -0.326966834062936 -0.36838512761325753
H -2.2088236946481645 -2.0465005594225913 0.9130317256391468
H 0.5248900449996335 -2.5780797589106 1.1211720657765796
