10

C 1.722527272453111 0.15019617130788662 -0.2782781193396378
C 0.41350267089459664 0.12341688978071677 0.02417848192771253
C -0.6282672512169722 0.9907987329864617 0.4875608276638623
C -1.488824995722697 -0.15225538569542207 0.40441429241287824
C -0.5514213840237342 -0.9255862378669139 -0.010761264449926472
H 2.218400989783076 -0.7331602225849444 -0.6167333388476458
H 2.311974545834072 1.0477741928378916 -0.19258912470436895
H -0.9209701276497806 1.859683319197554 -0.1348135999321936
H -2.559199509676244 -0.35247897551265467 0.607059060895879
H -0.5177222106754066 -2.008388484450574 -0.2900372156265588
