25

C -1.5873753022911687 -2.3612352880975847 -1.6265095645746843
C -1.0176280626580094 -1.59154119828312 -0.7275689114283741
C 0.3597182498264979 -1.8129236695319244 -0.15454421738124474
C 0.6275871316146977 -0.5063763573799549 0.4109642531634637
C 1.7411056450444469 -0.19373843090184956 1.002115739795613
C 2.90516329701147 0.09773565695982671 1.5099085511673211
C 3.8993969515735682 0.6143775581320498 0.5941110692310484
C -0.44498394889617776 0.4621555379701975 0.2746859765050712
C -0.1861698088581606 1.391998036664156 -0.9044122643351798
C -1.5928008263755167 -0.39978529029071974 -0.12074629256629185
C -2.880955479650373 -0.1554804078878234 0.036188674741829165
C -3.331355385986207 1.098222726094756 0.6702611571185706
H -1.0839353153385192 -3.229677073485623 -2.022308782645773
H -2.5800075739180013 -2.1389300017946566 -1.9910874510937566
H 0.23816659765846798 -2.6169832036420186 0.6036487993081999
H 3.0035092020579364 -0.07263109829615128 2.535685318463082
H 3.4899283435395607 1.1229341169835576 -0.29453835284709484
H 4.542001357758476 1.3585911098184926 1.1467911677243277
H 4.602695445286192 -0.2115266967124271 0.32189276159002295
H -0.5758657015467604 0.94104767613456 -1.841311816569309
H 0.9008559961832695 1.531193340799481 -1.0596377988634502
H -0.6712156933933542 2.371020176555554 -0.7352431827903456
H -4.084093047064605 1.564473208788996 -0.029423884712010868
H -3.791864811523206 0.9268810047698918 1.6643212518064336
H -2.4818772600565193 1.8101985666325977 0.736757799191487
