7

C -1.2251019845539008 0.2559385886434755 -0.030360345401525223
C 0.05419491588677785 0.04067355725415513 0.21537673044201025
C 1.1242759401436055 0.039832070259835435 1.1585461517895852
C 1.3586396001078191 -0.35250622526194286 -0.2489243795490511
H -1.8745767445883208 0.5858810677611753 0.7530330692804399
H -1.5957858673345422 0.09448339749558733 -1.0229089041297112
H 2.1583541403385635 -0.664302456152283 -0.8247623224317447
