29

C 0.12991318398041607 0.10074393131564127 -2.0651731411783
C 0.14279574547772272 0.16034443874599305 -0.7450661603243669
C 1.295942601989183 0.1684948816960138 0.08939153154940845
C 2.5235276344153967 0.22548473584968687 -0.32005621574910675
C 3.7507071976783966 0.1839170704947262 -0.7825530163091575
C 4.281415994758415 -1.1503584671959102 -1.0133034869660156
C 0.9311222719212808 0.1010054155719567 1.4621416445419666
C -0.3827793918923645 0.056746791393359315 1.5479449907463143
C -1.6434929234912832 -0.022684002125351193 2.3777794635765006
C -2.4476598114275667 -1.040429737362146 1.5595317535918283
C -2.032723059153837 -0.8201231492546398 0.09564222714218541
C -3.1858061291180193 -0.07914896455393969 -0.567944751838401
C -2.9504377342147032 1.3476249347347808 -0.3169214243905131
C -1.7093324788184656 1.5378840463099448 0.10059123180896036
C -0.9986361662081829 0.23078623001604892 0.16468909025615955
H 1.070374566682824 0.052569747130676456 -2.5919180125498116
H -0.7875017612704036 0.09788010860469545 -2.649580032771797
H 4.169363657450661 1.1382048012370813 -0.9178568078545124
H 3.559965605188993 -1.8580523437794447 -1.4873929151785568
H 5.242035014392895 -1.112266251601439 -1.5659653820863224
H 4.543528718975423 -1.6061639100899054 -0.01429527032410359
H 1.570048827050749 0.08511043865513715 2.334585178963269
H -2.1297662617443387 0.9498678278992151 2.4292271173338005
H -1.3962799936020474 -0.49261897722269066 3.329904510442928
H -3.5174432263367015 -0.7938914802406731 1.7014716848207665
H -1.76491778715923 -1.7503337236277396 -0.406974756874398
H -3.269880817408503 -0.2985881176513903 -1.636050065942237
H -3.730827903905553 2.111932020503403 -0.46999578998641833
H -1.2632555742112606 2.476061704546423 0.35814680554956674
