19

C -0.1849825676129025 0.2411970213466705 -1.7807915052432033
C -0.2470949821268634 -0.20608274009051453 -0.5320610299473211
C -1.3188476412588155 -0.498137828752802 0.3456163100248564
C -2.830039702598615 -0.4088722720274646 0.19091565085161513
C -0.5165721918339388 -0.8587088622376089 1.2979258690768931
C 0.659619881824511 -0.603136989342442 0.5159611642046285
C 1.5476871879576632 0.5322967700551042 0.9769695409270304
C 2.375397944968885 1.0358144619079326 -0.1521038654706758
H 0.7753961727700616 0.3991509337012425 -2.2787528644292223
H -1.066352978057554 0.4676584620532709 -2.3576683177811195
H -3.0850735194462424 -0.7522680877620822 -0.8279979368567504
H -3.292831829272432 -1.0692855658294818 0.9451412362606331
H -3.1730414795021047 0.6283526536363013 0.3554910951222967
H -0.7744817405740351 -1.2236355074022238 2.3273377675773808
H 1.226848644647129 -1.5487595426655627 0.2998468005974287
H 2.1286412289041725 0.28272947386220026 1.8793991370023564
H 3.298927393597339 1.5064558106476846 0.28455476563212834
H 1.8036490088107284 1.8391298916011471 -0.6637149308256529
H 2.6731511688029426 0.2361019172985594 -0.8260688867232434
