29

C 1.2303102723758104 -2.267868995154958 -0.7552632087656416
C 0.7545376061899709 -1.1072670776254099 -0.3571541941577359
C -0.6517139755909621 -0.6060695414863161 -0.5137237655814353
C -1.5930955721130597 -1.4822392128011348 0.21444560707797528
C -2.868381578758126 -1.371188393770076 0.5233961973753507
C -3.8938013665832862 -0.3603886669728705 0.29083022875950915
C -3.8603604989956497 0.8581315325125762 -0.2240510226102403
C -2.7485237312752138 1.7055863334245807 -0.7832179399569417
C -1.6816273488576097 1.766259728466425 0.28431650560523836
C -0.6365453308841529 0.7521562456476371 0.10862011552475706
C 0.592545350771128 1.0399160989560319 0.5758211132540265
C 1.447571058879916 -0.06226439746827498 0.3080680428310915
C 2.692526836340573 -0.09538187129117207 0.630650115736257
C 4.000709001931816 -0.0889165618283086 0.8189960952851494
C 4.806033142653516 0.43889691189175206 -0.26271623592417576
H 2.2584808801552954 -2.559437816239717 -0.6067078687167865
H 0.599866296927665 -2.991006544244567 -1.256864093603929
H -1.1539955332827974 -2.402562693181626 0.5684854914303213
H -3.2755621500206433 -2.2235325154289978 1.0854198660384244
H -4.896608070917059 -0.6730839072525371 0.606629085988427
H -4.8013539356211075 1.3545993598889743 -0.2574988171564528
H -3.106312867564426 2.7282174460331268 -0.9616813797554877
H -2.131096858376022 1.5966600177879928 1.3043742278021426
H -1.2355216298702385 2.7975219705437215 0.34135299856087936
H 0.7999776991877305 1.9932467011972719 1.06648916218769
H 4.254641829226124 -0.48311323078835433 1.759697114590619
H 4.2754505033027606 1.2092676374374576 -0.8331051696780245
H 5.741551510286174 0.9222752266146997 0.12460840168706092
H 5.080298460482109 -0.3884137848673488 -0.948440524842188
