29

C 1.9600712806647997 -0.8992979313716882 1.094328542703648
C 1.1601338146716966 -0.21450392825337408 0.3091260388012408
C 1.3418127888056153 1.089180743223757 -0.21417357319581107
C 2.3558443075260787 1.859313883819068 -0.003547795539002726
C 3.3443533629380475 2.6571802057044445 0.37034560279921647
C 3.112527591758612 3.4578319748208246 1.5581299908821524
C 0.22217631529123066 1.4721674432049556 -1.0357142986018968
C -0.6704027096296196 0.27884377889757395 -0.971284934075088
C -0.1542520113347889 -0.6678346217350902 -0.22198081764120464
C -1.0629818413760639 -1.839323557830435 -0.17338035615833755
C -2.16285940191146 -1.6826331224108195 0.856245964379481
C -3.305017853414982 -2.3698062630911236 0.1647618406144573
C -3.1147288120473138 -2.3705252782224795 -1.1419713291255094
C -1.843377800457031 -1.6929345596904146 -1.4528473121728769
C -2.0055743994915005 -0.18338979119030632 -1.5141619195842089
H 1.6743765037082075 -1.8789133832648737 1.4025226510011743
H 2.8839072088718933 -0.47947857703358854 1.4190356485247264
H 4.1674162376013895 2.5808689238620603 -0.2746372834270809
H 2.0427456338688565 3.689213569598407 1.7121128482472974
H 3.434367131478241 2.8896902549065207 2.4790918129416477
H 3.6531401597821382 4.4151018431816835 1.5769347090169503
H -0.33282633611860285 2.323308819572961 -0.5909837232462958
H -0.5376386214612459 -2.799969806407435 -0.08439101451727882
H -1.9201531469269786 -2.2061403603530785 1.807970697984805
H -4.17004997996566 -2.8089540759027543 0.6443925552787468
H -3.770629338379617 -2.794221952335925 -1.8961103280391656
H -1.3148486160809292 -2.0956964021971975 -2.3268330329260354
H -2.8285790741870795 0.08790223137031197 -0.8403976777505315
H -2.15895239418665 0.1830199391279335 -2.548100600209731
