38

C -3.2774104763690945 1.8092940408854559 1.0588449901488604
C -2.3019004358323745 1.5479917988587217 0.18682338906587773
C -2.1905328603885965 0.1597999145912975 -0.2975137317049018
C -0.7953467769853417 -0.24814081737799465 -0.5983013791198756
C -0.6265254335575451 -1.4426654979196982 -1.0720694101094317
C -1.872941735433082 -2.285271716125777 -1.2627411306546963
C 0.6816910802933833 -2.0474196717715203 -1.4545729923569057
C 0.7514169239888463 -3.476399220665583 -1.003973753089106
C 0.3618474841603705 0.5705317357651649 -0.41519959707452564
C 1.416747092789937 -0.1325999598934769 -0.1470343925942106
C 2.477818951018849 -0.7632993994307192 0.35187382279189455
C 2.5045981357617935 -0.9390850998386289 1.7582378570990143
C 3.557293683602332 -0.5264433986909776 2.443031606567508
C 4.700556356090858 0.1125364767322705 1.763869682060115
C 0.641099943837092 1.9784352136375427 -0.4441781180701631
C -0.3153967171329171 2.8847582108940335 -0.5615471826160823
C -1.5098894430912135 2.73352155885198 -0.12392546511717854
C -2.205101523469542 4.042826479573498 0.10614546802922366
H -3.4571986339993255 2.7713789397335127 1.4785132447501437
H -3.9260205746953494 0.9699931034257452 1.351609990542318
H -2.6233079831461246 -0.4860862065379997 0.5070559985146943
H -2.816591240434454 -0.03205539859643239 -1.202893292177831
H -2.474713340939389 -2.3271279149985706 -0.34484709583977435
H -2.452220158523941 -1.8221033058190401 -2.1039389814547427
H -1.5685694611843635 -3.282549636293039 -1.629813144740482
H 0.7247487107457263 -2.0253651299446305 -2.557757001780651
H 1.7204832991521732 -3.737100167934258 -0.5267675093907215
H -0.02337979291083341 -3.622149268691332 -0.20185036434208384
H 0.5025205023108604 -4.150434990664056 -1.8376193851346587
H 3.1184649945105383 -1.0204673862989386 -0.42889563258919333
H 1.7177883273317816 -1.3965904033981649 2.3580410542348087
H 4.458294096654465 0.4342126876873062 0.7306975794523953
H 5.115138975386686 0.9666207063356755 2.3545336035648723
H 5.522276502686374 -0.635880226176619 1.6943558991013639
H 1.63495840019751 2.367541188470329 -0.3725507479007845
H -3.257252006801148 3.895238315793589 -0.20702027796013742
H -2.181531844718158 4.329061477239059 1.1730989244140904
H -1.7319130209063063 4.825492968590313 -0.5217225245197484
