17

C -2.1519816144298862 1.509571502372596 0.5457045256346167
C -1.244810566079147 0.5700047998620535 0.27894378159672717
C 0.15696566709579363 0.9787359942365157 0.22499259090258336
C 1.0517391246005703 -0.12904560369086138 -0.07301706360763971
C 2.529827576762677 0.20447545783455273 -0.14877111468263277
C 0.6287224734193126 -1.3510201527181664 -0.2682624742599237
C -0.7691588981714073 -1.7450428853710998 -0.21180622651349085
C -1.650403698243873 -0.8065685622644054 0.05230212766205176
H -3.209692865220713 1.2974612049266305 0.6049509535299953
H -1.821675928425611 2.504594195189994 0.7060498633453219
H 0.33618333729547756 1.881669166377093 -0.3633955853154891
H 3.00327175962812 -0.6169316522562694 -0.6829828499072678
H 2.5767546813730133 1.1384541560678032 -0.7647393601513246
H 2.9309153586381202 0.4191215288862773 0.849284785497616
H 1.4245377381420385 -2.0822856842218926 -0.4843900118658856
H -1.0631768782800737 -2.7547331385099563 -0.37837997872065054
H -2.7280172681042 -1.0184603267209336 0.11351603685547815
