13

C -2.080845134514204 -0.30270635527420553 -0.07054209856862163
C -0.7787103056490726 -0.15715762661642146 -0.0027769828805353793
C 0.0639322738443145 -1.277905969460082 0.399893625074491
C 1.3092152305133964 -1.1058249359774863 0.7629045795621054
C 1.932787704560878 -0.10373633635284893 0.2121633518219028
C 1.229242608047287 1.1040325013368069 -0.2043988601148261
C -0.09929941626666294 1.095660876417512 -0.314963056741419
H -2.734840485470274 0.5055199895223514 -0.36486030747500126
H -2.534968478161905 -1.2516784977087771 0.17113255298891494
H -0.39871869612465377 -2.278319407892153 0.3838816815841711
H 3.0008125124888605 -0.20143243900820548 0.07409635258656973
H 1.7607730835897044 2.0251921832914532 -0.4312370039839947
H -0.669380896857685 1.9483560177220427 -0.6152938338537669
