21

C -0.6369594866965129 1.6623392316606347 -1.167191247628456
C -0.8242203448208917 0.7319044531456425 -0.23728994089673258
C 0.2164722870076109 0.20006809790242105 0.6109306365717513
C 1.4684624170346738 -0.011075613492555756 -0.10860295851335398
C 2.4961050136326226 1.044781796811682 -0.3523264666390519
C 1.7029793351627223 -1.2286175469075817 -0.5682937919488387
C 0.7550104626186825 -2.088685697204256 -0.3434472962614268
C -0.6799792178448022 -1.7413577210357642 -0.3861509676268365
C -1.3607390601252611 -1.5077958992292706 0.8830772491255275
C -2.410586096124316 -0.6840314118685803 0.8389455580412617
C -2.1912153045065415 0.25251831887983067 -0.0765757311222917
H 0.3472378801107912 2.0488792759280963 -1.3033378410456518
H -1.4252146681279176 2.0477245830511284 -1.7913827302885776
H 0.3373361138390802 0.8768329415554774 1.495074235563698
H 2.2256062657813467 1.965094784299247 0.1724635666688828
H 2.6077164184710537 1.2827825018296808 -1.4283591116112817
H 3.5006998110232512 0.660502343215985 -0.013760779478947351
H -1.0711184945905137 -1.3573200351607055 -1.3148276339834704
H -1.0690822826992274 -2.8187840644081006 -0.5457610772502899
H -1.0078061438476524 -1.9834446203936458 1.7550967422565777
H -2.9807049052982535 0.6476842814205688 -0.6793070304770344
