38

C -3.0645245807985395 3.4069714809351375 0.11719644684920658
C -2.2490464442295433 2.510955211824729 -0.34167485331855596
C -0.8252787615344856 2.8758707591513297 -0.4846866639406302
C 0.15768141866382523 2.011431162105058 -0.40574442766909313
C 0.22916433111880172 0.5657727562280658 -0.17732033047889834
C 1.4900845609295907 0.1013539283002232 0.19371145779412963
C 2.684479481251019 0.3190826682897596 0.45407508317672207
C 3.518558635350341 1.49367484330271 0.4960754162322458
C 4.817809389293256 1.4342930147578161 0.8136149454044433
C 5.454576679827613 0.13350084408437596 1.1389620709706394
C -0.8089633096937096 -0.2825511907131937 -0.2736614031909
C -0.4938225323608632 -1.6684163066477722 -0.0073425534299233625
C 0.8253591846654836 -2.197229263933474 0.34609107134384764
C -1.4629884740864207 -2.6044457294217866 -0.08249449929062479
C -1.2416224233382724 -4.025812021504445 0.17056456419594354
C -2.2436275429586274 -0.11598868875125239 -0.570185414597584
C -2.8096179736325895 1.2087192692293618 -0.6842398826157722
C -4.036713988273598 1.2247930876285835 -1.1874095966633882
H -2.6507160466470956 4.384278145295649 0.3718991278078244
H -4.111415278912008 3.222821359187895 0.25841476711041084
H -0.6285646631191228 3.9172788534104495 -0.6574580657206535
H 1.1331325262984655 2.4840926641474605 -0.5658491178783527
H 3.311295863064124 -0.6176908972955724 0.7345140012583923
H 3.153439250061448 2.4696740084993887 0.28578093385085523
H 6.511909691958018 0.33376927092479275 1.4029559386928663
H 4.909302447618922 -0.28868002690901545 2.0299345145334455
H 5.387459074404218 -0.5949499385448934 0.314734796237716
H 0.7623251544020534 -3.3602963677923006 0.4308138538969324
H 1.2096505723118072 -1.8937390877921667 1.336980168385073
H 1.6058069335661178 -2.1102145410265143 -0.4288374090590306
H -2.44137709886654 -2.290065157485333 -0.35207915211314766
H -0.8708290971003332 -4.192539380012085 1.2240376646008464
H -0.5504199953179018 -4.5201764938676785 -0.5366056759824148
H -2.2465251246544184 -4.541633955310075 0.16124609678595755
H -2.75634592038619 -0.5729273919013969 0.3461834707907058
H -2.531151843600446 -0.6842160139766537 -1.481487151637802
H -4.580455889950023 2.138605749283479 -1.3332343047635358
H -4.558028205323935 0.3246333762990157 -1.4774676866579581
