14

C -1.4330684994748257 -1.3838987374424412 0.23642743728315457
C -0.44297970791099117 -0.4832373790825266 0.08396125092919875
C 0.9154172263735006 -1.010345767615667 0.08595619767786235
C 1.922978644844567 -0.17845042720135487 -0.059073086187618355
C 1.6121568323098936 1.2259331482914961 -0.21334058869691833
C 0.41307006704090665 1.7585986217091882 -0.2231793180966625
C -0.7831906043953718 0.9482463775614497 -0.07223988492814533
H -2.4473608442195505 -1.0261377058031262 0.23923917574498257
H -1.2084036239446048 -2.4182777294217166 0.3502050092633941
H 1.0765941880662102 -2.096180369863445 0.20880808078156818
H 2.932756963822225 -0.5744154360364733 -0.05708023918697576
H 0.2888571368751501 2.8582263645749544 -0.3493474192072925
H -1.4085581905102067 1.107210824423177 -1.001096251586114
H -1.4382695888768997 1.2727282159064552 0.7707596362095471
