17

C -2.84039513618851 -0.8151246392284002 0.4309776014068949
C -1.6372158976960125 -0.5664787022622424 -0.015048883725832397
C -0.6161618347455182 -1.5961920822049402 -0.07088660238875226
C 0.6469713100264148 -1.2985287590263739 -0.32708202579008383
C 1.1178831795852178 0.07853393666844324 -0.5733460457248155
C 2.44753356516014 0.3629305502044474 0.1024152386817612
C 0.14149205001697546 1.1353737107872008 -0.23925978088981262
C -1.2901168011195765 0.789970832474538 -0.4777984080587382
H -3.131840561784432 -1.7950484391364208 0.7782107254563766
H -3.567305493012643 -0.021783306903907305 0.45505222295904846
H 1.4116097665345708 -2.084762784036416 -0.3670924246717704
H 2.258593065133603 0.7697339427047998 1.1384687810826835
H 3.05579648815719 -0.5440462583131731 0.11908831837590571
H 2.918455937461206 1.1860365008953913 -0.5112863566608937
H 0.2309288953582728 1.484147340085149 0.8241003843043943
H 0.38082225286998495 2.0393706111102414 -0.8654264077673078
H -1.5270507857568578 0.8758675461816394 -1.5704375578089538
