13

C 2.535758552871513 -0.35381815418255647 -0.8460820806781606
C 1.3976054083995508 -0.005352192333204314 -0.33026782139182176
C 0.6435359653625617 0.9673837386493889 0.5466206221192483
C -0.039741878692098685 -0.18419891659098886 -0.12536325701633946
C -1.147248693035235 -0.8501567542719533 -0.3484617489759111
C -2.431816570249547 -0.43689150939241095 0.24806033079133327
H 3.421675670999493 0.21675478793631517 -0.6403383229632303
H 2.598356755449025 -1.2187436585096918 -1.4845494433074695
H 0.8485717147965866 0.8648389833979789 1.6394542502560323
H 0.5429878683224335 1.9749633040131152 0.11120117673169848
H -3.307651681567109 -0.8422191445785199 -0.3067921296969949
H -2.511905762160681 -0.810720538218028 1.2886859957219403
H -2.5501273504964166 0.6781600540805305 0.24783242840965342
