29

C 0.991172241921737 -2.4542283300565213 0.0911295421499417
C 0.7754734496381852 -1.1880170031388946 -0.15056780278962395
C 1.6299849634182855 -0.0684651161421508 -0.32600932028536805
C 2.910390782016909 -0.12347705616718932 -0.26607645389996004
C 4.2170978773384835 -0.11716546193031016 -0.05295435935748948
C 4.650923473588191 0.1276505129968658 1.3102686031266606
C 0.8584964436068422 1.0860704191904837 -0.5673298627534442
C -0.46449640387111796 0.7611475579524131 -0.555766351878677
C -1.6316237186193652 1.6191169831871286 -0.7564595513137119
C -2.927672081111507 0.9342169020700372 -0.7438678098041235
C -3.6576647982777013 1.1719696379842457 0.5266200517550724
C -3.769947642847051 -0.08993516794278732 0.7857326392331822
C -3.0714314873383333 -0.46834792491730814 -0.4243278285708369
C -1.7863328786198844 -1.1899134601664403 -0.2434027105674468
C -0.607270498206222 -0.6438209076011715 -0.3016948148020585
H 0.2079460106563524 -3.1828197888315315 0.1969967492072479
H 2.00933062658524 -2.7958469203162926 0.19145689887133807
H 4.751262919979687 -0.2972707813434858 -0.9386796077428874
H 4.6553830449640365 1.2452549453545634 1.4706627512399213
H 3.925988985002131 -0.28541998710338945 2.0386024491700097
H 5.674955239261186 -0.20208735299128214 1.5397642221505192
H 1.1575435851309412 2.108091907524294 -0.74503185309934
H -1.5368161799504703 2.2254707948602843 -1.7083150279444124
H -1.6151543795368877 2.361378371078934 0.11501627801222021
H -3.5903630370722737 1.22227748761993 -1.6486825333554274
H -3.9307523841859555 2.1536871797826946 0.9581076187961238
H -4.235705092796615 -0.6281253238081589 1.631152198006258
H -3.7329757379238897 -1.028319637321929 -1.1738292211666934
H -1.857743322751159 -2.2530724798228086 -0.04863159445546432
