13

C 2.110155653330294 0.8179874098838671 -0.1957601110337735
C 1.3506989880609312 -0.26630414943211833 -0.12000099824164291
C 1.1642144492838615 -1.7337119480012426 -0.11868364472900397
C -0.020911407558386184 -0.8860004227199672 0.036088961459240024
C -1.314111275646073 -0.6579791230524142 0.19493997082405545
C -1.8024063396463934 0.736717268289365 0.2737512980870478
H 1.6162106783977896 1.7989016000974798 -0.12221908839126923
H 3.1597578620844278 0.7233738011815475 -0.32339418447545726
H 1.4435220232544945 -2.299824365700423 0.8052996482529612
H -1.9811552323868804 -1.4959172500162885 0.26314023322204494
H -2.4789744635803284 0.944171375432367 -0.5814069385929302
H -0.954578399981438 1.4457637672194092 0.1952928998122112
H -2.2924225356123595 0.8728220368184005 1.2598000097939879
