14

C 2.8104196542646513 0.7118135225899653 -0.7634242496527897
C 1.7974478949531965 -0.09964532616423868 -0.9671704726214722
C 1.0813952929419275 -1.113173665368701 -1.6964137119857414
C 0.4646631605130419 -0.6402949081933448 -0.5340484518295088
C -0.5220950551776568 -0.631193363936691 0.3310126566644268
C -1.4059941523450892 -0.419958946917368 1.2538366601851774
C -2.446599955748293 0.5686777159492634 1.0452516859062106
H 3.6411929707541737 0.7396954082525162 -1.444541698368439
H 2.8163903632836833 1.3596072287759395 0.09315124382343137
H 1.4625941262655215 -2.104187989472143 -1.9194025364124527
H -1.346544436304826 -0.9840097928296918 2.156539951999992
H -3.3791183826046023 0.14587628046225667 0.5742634187639428
H -2.8169929317507134 1.0383028905471108 2.0023983764235056
H -2.156758549045056 1.42849094630512 0.39876116441235654
