28

C 0.970575913163876 -0.8521014177845989 1.83788890369899
C 0.6377593188087577 -0.24091620305548284 0.723282435357626
C 1.5213424162877816 0.40229102185941906 -0.24174848574868968
C 2.923952414734528 0.5675360356836243 -0.2965755638188134
C 3.9246037520619597 0.2569039151598551 0.40075089017539983
C 5.2920682426927455 0.6859598989474374 -0.11315839289772989
C 0.6984553340682961 0.880509257563791 -1.1985045179893703
C -0.6641801081610764 0.5723022452684032 -0.8885293652433824
C -0.7333360226978188 -0.10698967384995403 0.27167682629187045
C -2.143522982892412 -0.37836069641028275 0.5717981047229409
C -3.117427023566411 -0.597110747932373 1.3921299999651564
C -4.374119750440142 -0.7750827672275485 0.6757665676948093
C -4.11466985075064 -0.668261606665363 -0.644915179892979
C -2.739447678338653 -0.4524306886897291 -0.8334507696220874
C -2.090062225006676 0.7407307317525855 -1.4404042788197193
H 0.19441291501699537 -1.2965313936218743 2.4767012303466625
H 1.954477508922158 -0.9606055913862631 2.19220364206152
H 3.958378087487485 -0.27953044634114194 1.3278888167417953
H 5.165809522233958 1.6674035429492902 -0.6310636444168385
H 5.999577661737488 0.8150256154841438 0.7042320562422406
H 5.595493762011857 -0.05735908833787988 -0.8728821731448989
H 1.0561253839268034 1.4267462766817984 -2.081159488191641
H -2.9483608792333813 -0.6333824347435904 2.489990996255959
H -5.356801896213919 -0.9611946408774029 1.090309637806491
H -4.912650181076317 -0.7478524270412954 -1.420953103175666
H -2.2188949037611256 -1.3646065445360263 -1.328567649193111
H -2.501996495246822 1.708828158055582 -1.1714539175044318
H -1.977562235769579 0.6480796690949299 -2.534685790642962
