36

C -3.2743338966495927 -2.4154346836719918 -0.8165783005244353
C -2.1470125464714016 -1.9102426196529436 -0.6303020262702275
C -1.3958242057753405 -1.87017335541238 0.6026305837056002
C -0.1936475395950422 -1.3145335744680147 0.7372416417080553
C 0.5182222244428735 -1.3142581601252719 2.0693314560560534
C 0.8822538522057364 0.13914323571071124 2.313017515876923
C 2.350743133898237 0.2333350208469246 2.0556280230220345
C 3.042494202278244 1.4815159747119282 1.9926159057769812
C 3.615627543609661 2.53609261440471 1.9581875087073461
C 4.318743468387441 3.826184657040843 1.915844489544155
C 2.865704339642194 -0.9627045732373399 1.894344745332224
C 1.8290783222093812 -2.0226026199120914 2.0176580786833527
C 0.4161496656218469 -0.7067250315426558 -0.4287446798901599
C -0.19237647902619376 -0.7001882453748065 -1.5920773015670258
C -1.4939490456745126 -1.269944186162189 -1.846729755376623
C -2.400532381237092 -0.3304021652102989 -2.514230673462014
C -2.607652104501323 0.9040832981982561 -2.072686196082376
C -3.5101612122741677 1.8908592183926658 -2.7014413839124662
H -4.199799659915422 -2.7987727334887045 -1.0825750013708324
H -3.541386288368923 -2.8641715684202014 0.42056206291925885
H -1.7836014006911398 -2.3157789772919384 1.550670395167964
H -0.185559275308737 -1.697688616102322 2.807377690672882
H 0.31598377248090664 0.8200297164937129 1.645656692314451
H 3.6352615727738047 4.5773902612855695 2.3649071243094566
H 4.5939248663180585 4.144704442658176 0.8930384612691433
H 5.27421660712415 3.755985237183511 2.5069280445171533
H 3.8985777843075646 -1.1275724421078177 1.7021237753177023
H 1.8184067907530859 -2.6757295379478765 1.120036591874044
H 2.014425040040481 -2.6102428593189226 2.9428059061618397
H 1.40490881411704 -0.25302249466556137 -0.29952742847529945
H 0.31401006357319855 -0.23083423383148496 -2.4625504145126573
H -2.9286088239143218 -0.6395727058417741 -3.403650897126344
H -2.05117369487593 1.17900855577997 -1.1721784936002346
H -4.283699612917542 1.4027260078361539 -3.3298269981945814
H -4.034543816095344 2.5412548960708574 -1.9726654541827822
H -2.8848700804809115 2.5982822473656917 -3.3288459949397176
