12

C 2.0217400673878334 -0.30319328934353723 0.08742723248449275
C 0.7233997358936134 -0.15045942701223658 0.11694656162646289
C -0.025003625061215295 0.996121020550558 0.6541268258467302
C -1.2414270038615272 0.9950492141972465 -0.19208968592442308
C -1.3979315336558906 -0.17977848875522529 -0.785368764096795
C -0.27644031140769854 -1.1087699785340608 -0.3890467805831732
H 2.6794637446605027 0.48013882522079243 0.49542213648557815
H 2.5412025737726673 -1.16182054151166 -0.31626637585306155
H -0.2793870758388259 0.8853219850160007 1.7359613618829757
H -1.919926790236846 1.8317394838142593 -0.3188238722762106
H -2.2012285584857665 -0.4582894713401155 -1.4585419519320058
H -0.624461223166829 -1.8260593323019914 0.37025331233943265
