29

C 1.2501297795505715 1.3033453760814677 1.7198753076762618
C 0.8120132618835277 0.3891174365741964 0.868262831414564
C 1.5100214941046237 -0.5740906680540483 0.08695092220326965
C 2.786996423532481 -0.7154365430775288 0.08656015553334376
C 4.092563826123872 -0.7995304166866375 0.01718541303036368
C 4.715992175195838 0.03472900689952868 -0.9960208776191134
C 0.599681981714124 -1.3647305072812894 -0.7029549602236203
C -0.7268621397041959 -0.8011828502839111 -0.33728983854042505
C -0.6190751686504248 0.1812923532763226 0.5415880892470126
C -1.9735772062318904 0.7210418184930353 0.8818830706826417
C -2.2627540535555966 1.903895765650928 0.054351192495490565
C -3.3963884021753423 1.777960213080788 -0.6182216017305199
C -4.0214160538397214 0.4832956145367251 -0.3276620727388237
C -2.927429437565732 -0.313368191316615 0.3842566169079216
C -2.158701929831696 -1.046986608728547 -0.6953431765702431
H 0.5539890587259292 1.9490311657289812 2.2208105104606997
H 2.3110686500914075 1.4079703723202535 1.9184017565152955
H 4.502503190445701 -1.4713812389720307 0.7187222751690601
H 4.583259556732994 1.116147720113764 -0.82892515494369
H 5.8190064121645 -0.14723534807005684 -0.9836168148101107
H 4.300428672836807 -0.2700982440159264 -2.001413183279879
H 0.7431815375585215 -1.3268654463266707 -1.7939946578677428
H -2.066046835292685 0.9167388878318203 1.970401505385653
H -1.596367196771275 2.775692985816228 0.01899034379444753
H -3.8312250002682413 2.5125855567069557 -1.2988205788982115
H -4.935570027555846 0.5429660970014317 0.291836092217719
H -3.3290313939040304 -0.9756099324762668 1.1541645828165574
H -2.416875499720142 -2.123296510402003 -0.6629542393598987
H -2.3195156755944892 -0.586898835659431 -1.6870235089679193
