17

C 2.713241735670281 0.946602004038955 0.43241024758201
C 1.625808737418152 0.22728067763856927 0.3335811902600951
C 1.6001498719721428 -1.2264023191842073 0.35057179680962963
C 0.4880219957999216 -1.9026114865071424 0.24870739327113398
C -0.8335801421505524 -1.2875391626327686 0.10858086598135756
C -0.7899294092972307 0.1701726228806668 0.09332930871460114
C -2.0992563764385506 0.9226023178582355 -0.047428271027939096
C 0.31330438283775464 0.8681820660941478 0.19401232244801742
H 3.6768669014983275 0.47755193979619714 0.5348625710751282
H 2.649901257667389 2.0124870753641075 0.41176314308038187
H 0.5048906649713073 -3.0252097286016966 0.2654646071125221
H -1.530329614179494 -1.6670999166445541 0.918140939557632
H -1.3526187547410031 -1.6659112252639325 -0.8383328057180687
H -2.8585829759130403 0.4364386671683377 0.62499652914993
H -1.9654415788871387 1.991200808532314 0.16135908798883383
H -2.4695055785971536 0.7519275443722919 -1.0742874339453001
H 0.3270588823688817 1.9703281150904866 0.1805523030189142
