29

C 1.2595186975135668 -1.056621852332895 2.1455845958264734
C 0.7891135619532593 -0.560108659802347 0.9872664472654951
C -0.6160061597095945 -0.1350137567010165 0.7613422784030851
C -1.5947114313760369 -1.1569160941819623 1.0898569541509016
C -2.910757927398288 -1.2230167138406194 0.9969890959473404
C -3.998385839629681 -0.3686700697786312 0.5487161322474329
C -3.6215345558079397 0.9879616677930029 0.13029232636568935
C -2.723484640122985 1.5312605046496859 -0.6874909997430727
C -1.6825324061611 0.8898231194303551 -1.5504989707090338
C -0.6241307559280751 0.3245004225761654 -0.635656294662459
C 0.5625966124660035 0.21852370923405615 -1.2186522658412566
C 1.4532124746236628 -0.32257155866906095 -0.24615836026533897
C 2.700394883838851 -0.5598550794821189 -0.4661694380584413
C 3.9893440272496674 -0.6743694484421391 -0.6356682994547129
C 4.796290486469725 0.49300440057238504 -0.30577255365395506
H 0.5948836767808257 -1.1662209429130872 2.9883545120072745
H 2.2797640454685166 -1.341901407101262 2.2381699391577494
H -1.1141716461405304 -2.054213249916958 1.5003705075686227
H -4.86193145896213 -0.3201642395007361 1.248301979340249
H -4.436865289859476 -0.8614521270551304 -0.37244435765405287
H -4.238532977340721 1.733171982598399 0.6177971011641572
H -2.767250803152904 2.603885035048934 -0.7210490557098934
H -1.2799457827807543 1.6754600696325848 -2.1966151703539163
H -2.105445268187088 0.10355674737459945 -2.205027325432805
H 0.8039958559680435 0.4935192988446548 -2.2431791138708865
H 4.264227915702442 -1.6221449843572997 -0.9967053014257359
H 5.881321700317738 0.20258529702087408 -0.26125443248584923
H 4.479375692638913 0.944000088012398 0.63678284674358
H 4.721647311566429 1.2219878412866305 -1.1474827768667564
