21

C -0.7502999894037058 2.3067765661881148 0.8421670286553431
C 0.05673504046103384 1.4477149212205016 0.2653696763589113
C 1.4989631006883253 1.7416202289609295 0.431684055375858
C 2.60844281730461 1.004566053409841 0.33347626778590844
C 2.8761499025539488 -0.41835615850733987 0.01776284486407674
C 2.082121820862634 -1.4757300317928108 0.02907917404063104
C 0.6746339990272958 -1.6992245813166422 0.3379354750787925
C -0.4084458401080717 -0.9535356103538647 0.1747475905085386
C -1.8016497123027895 -0.38810128449255354 0.13771474035226958
C -2.7798457028605728 -1.0594397825085158 -0.7761562231024829
C -0.6432515826438838 0.3730927751710127 -0.42537778031605233
H -0.43490751528066585 3.1744246420172284 1.4043148242339416
H -1.812344565346592 2.14904855210708 0.7581355135408796
H 1.6254978520723864 2.776732295944567 0.6839126139856692
H 3.8958845766148404 -0.5995724974963047 -0.26655862153550836
H 2.600203651933292 -2.3850693484231007 -0.2483900764190683
H 0.4833206110930217 -2.6863176629501884 0.7920337251604148
H -3.645416611198342 -1.411344400016656 -0.1462208333278463
H -2.307071136340891 -1.9606850683163655 -1.23094259491347
H -3.175156147378263 -0.3678467433553911 -1.5609992715763583
H -0.6435645697468937 0.4312471345101228 -1.5536881287502602
