15

C 1.9307121101711688 -0.6376056585431193 0.18146436701909663
C 0.7848083677447313 -0.058745611341607884 -0.06603450709848706
C 0.439044595162133 1.239321061734407 0.5270987848546079
C -1.0202557164453185 1.397859807559518 0.7522232960065255
C -1.9233574841735803 0.5243129657217522 0.35061711558508146
C -1.5929087414259182 -0.7096977308953009 -0.3673623208381043
C -0.20879821507388688 -0.7047756204762435 -0.9630051727359887
H 2.6339804949153436 -0.14685513957439758 0.8362696665671966
H 2.1705599515432676 -1.5944682166257906 -0.2635272741286494
H 0.8237607952882955 2.046552492127144 -0.13980662861723012
H 0.9302836167052941 1.3958014942126284 1.5146998966527159
H -2.96845625290216 0.7235790650434193 0.5595823229810559
H -1.8228176176360107 -1.6376437658930294 0.18420683331328155
H 0.04799728697493951 -1.7463201708486884 -1.2054336953160094
H -0.22455319084828396 -0.0913149722006999 -1.900992684245075
