29

C -0.7104466564846924 -2.5283142367509446 -0.6370620726758051
C -0.5116099161473261 -1.239804353964447 -0.4655044540583059
C -1.4338198099962254 -0.26955421251377004 0.15115819006235906
C -2.739961694364274 -0.6492242402999704 0.6679578168331681
C -3.552207368928521 0.23008469354309422 1.2160906312017834
C -4.86123907359046 -0.265905152675277 1.7105578828072543
C -0.8224277056290865 0.8898392389012122 0.10882660634061461
C 0.4913579722604131 0.7561491308627118 -0.5158449973269287
C 0.6762689728119621 -0.48834311968467337 -0.852942632813013
C 1.7435173647687516 -1.2452235877864828 -1.4917266072792341
C 3.0085428431085846 -1.2669389328400102 -0.7673137294998874
C 3.7103576479511435 -0.3393256126260429 -0.14089237032486918
C 3.574981318869436 1.0885225561819525 0.12217744446846113
C 2.601203521069212 1.9567915315487783 -0.07386097530866861
C 1.2445407235908599 2.0087777485381895 -0.6041012465876139
H 0.062431311920239485 -3.1153426863214064 -1.1078974209320145
H -1.6519577833756829 -2.9524579061945624 -0.2951239440722231
H -3.2592291813067362 1.2699755460010456 1.2942487882572367
H -5.45967220370374 0.5690924898566574 2.110779278154497
H -5.436996578407194 -0.712734299430994 0.8771341513277753
H -4.754736204673075 -1.0418640179961294 2.481789819632609
H -1.292931905072336 1.801930611169543 0.5082411543232837
H 1.8425347979718898 -1.074362651164902 -2.5785696552486135
H 3.481754961880967 -2.2355612425623086 -0.7258248300091938
H 4.638277210548391 -0.7439490793549046 0.29763549667068495
H 4.478507763802972 1.525738351150929 0.5800856453622537
H 2.9297789115862876 2.937383652231536 0.27518422290402833
H 0.6654918205883112 2.8919223408411465 -0.20951451030102275
H 1.3376889389502398 2.2426974413396925 -1.7080185749003889
