14

C -1.9542482154659773 0.7623573163774311 -0.14005953997666917
C -0.7090797141809589 0.24296844211518714 -0.047205032378255546
C 0.4444528916696473 1.0916962545983762 0.11373847962899217
C 1.6875982573565815 0.6542577650903699 0.21101839584560977
C 1.835438009433228 -0.7940770846101872 0.14393062534172574
C 0.8340228467728157 -1.6165423211862435 -0.0006161543249925149
C -0.5581952073109652 -1.2114468786400252 -0.1143415136995201
H -2.1419597531773698 1.821113589854928 -0.09882280210549715
H -2.812309879237815 0.12548565087641067 -0.260091795536358
H 0.21592489897679384 2.1715320941161993 0.15216018310351723
H 2.528149688203656 1.3146795429331117 0.3306569559508464
H 2.8277197049163165 -1.2707867601533418 0.21439621172453263
H -1.2286550633902305 -1.7338077406319596 0.6212421779831672
H -0.9688584645657518 -1.5574298707402396 -1.1260061915571375
