10

C 1.670090007732972 -0.30607872635007927 0.06074715310799769
C 0.37834636640083297 -0.086816561255411 0.0025347849304420654
C -0.764631608733977 0.8656675580319619 0.12896082906436057
C -1.0585598808400207 -0.5090032016294724 -0.2186645684208402
H 2.359278656788072 0.48438700046497063 0.3046767212665857
H 1.9986152539264732 -1.3301535742983506 -0.15156979740834683
H -0.9414122582061635 1.1825949929035189 1.1841837502738113
H -0.8212630210495034 1.6846268699155416 -0.6095338802822879
H -1.5121714566748332 -1.163197283820039 0.5656053040097815
H -1.3082920593440341 -0.822027073962466 -1.2669402965414365
