29

C 0.9965133429523646 1.5787642136020965 1.170339148120599
C 0.5804291627802421 0.4237707558302519 0.6390187324040568
C -0.7596948105371161 -0.1388866691772821 0.622407917541799
C -0.5987534143211896 -1.443432981561421 -0.13553823214038602
C 0.675848797919912 -1.5988341496148943 -0.48450076072610726
C 1.451027044404392 -0.5090491089777959 -0.04727942329363831
C 2.7181064640018877 -0.5069789483631717 -0.3057812171711447
C 4.012070452954147 -0.26981058626370574 -0.2648268185973405
C 4.46870655833431 0.4513719389717945 -1.3909817422052728
C -2.0004628376127 -1.9209976584329052 -0.13465995128793395
C -2.790590039193197 -0.6322328171419838 -0.42373802927425464
C -3.7326714789139688 -0.33684400275370857 0.7123998246083242
C -3.6261569164891556 1.134485252513119 0.926491597170514
C -2.519887382241596 1.6006642079033695 0.369402398399503
C -1.7699570464148928 0.5128986664545871 -0.2717226400846573
H 2.0256130182955805 1.8892305613846911 1.1178189610466616
H 0.2615888154369957 2.1891195961615644 1.6544418720064344
H 0.9348485421773948 -2.5195745497658817 -1.0430168629997667
H 4.618868322282991 -0.5960394470540218 0.5422513380947777
H 5.0114810736760305 -0.2413618290247235 -2.1001250591816487
H 5.26103084197028 1.2144924533382049 -1.1241182056714425
H 3.75271104929874 1.0001617415907005 -2.0123455571125084
H -2.1991305767574456 -2.681220011592856 -0.9042759842925572
H -2.2303026248967703 -2.2581295235910575 0.8972822295024511
H -3.2515807452962293 -0.643458375912871 -1.4095981711045869
H -3.34791532612481 -0.8174341713060114 1.6579115132205275
H -4.338380581870458 1.7242313138346153 1.452154399791006
H -2.2292914195810845 2.6355163649822444 0.3943171484412474
H -1.3740682862358256 0.7595777639685832 -1.273356405692161
