28

C -0.3046204405772618 3.1657999414403255 -1.1537029755095416
C 0.1410872388243578 1.9985372497264395 -0.7182914094056284
C 1.5974089422921178 1.6074107909277993 -0.6433024942545426
C 1.4389687892445702 0.16807264765635183 -0.3774819767414732
C 2.43946917851804 -0.645677790173914 -0.46111262392365976
C 3.461432567280934 -1.4660293645677356 -0.44489534275896386
C 4.14857331185771 -1.5902898580313503 0.8299992088220319
C 0.13345817409477442 -0.21119426157124643 -0.03333880550079423
C -0.6457779739593185 0.8777365618692774 -0.23765276797465032
C -2.040950324521611 0.5094773353267213 0.07241088099619598
C -3.327631196688832 0.6233985964033332 -0.12125531505745546
C -4.041251878290781 -0.2777139334278042 0.7727617314340196
C -3.1337768363409912 -0.9326074057132436 1.5258614148182919
C -1.8250642930881251 -0.49265948384336145 1.1904659408149105
C -0.7978359512414479 -1.31518536183027 0.4954107708323419
H 0.4135883944724194 3.894965899666976 -1.4797847563704503
H -1.3630087664247394 3.4058581257422973 -1.1907846350615579
H 2.1093379661325513 1.7936673077664156 -1.6034371852274383
H 3.6409977346144045 -1.9248304986921418 -1.3731942797925678
H 4.82674589933581 -0.7118758234968324 0.9472997355655814
H 3.4398057918287117 -1.5354242827225049 1.6805021176157295
H 4.7998079809764915 -2.483864515504483 0.910188690079541
H -3.779324757959212 1.3004241656765911 -0.8491898519928638
H -5.115236094768584 -0.4151358986920726 0.8391572645036356
H -3.4403955225195917 -1.6665448792709305 2.252188665555981
H -1.3349806322029023 0.09932393771617341 2.0394616404611687
H -1.1818986558772184 -1.821433583309091 -0.3831579395358168
H -0.2589286450121954 -1.9542056190721606 1.2168992526330877
