12

C 1.873700024263327 0.07509018382913708 -0.012767984267797032
C 0.5790047670610795 0.23551164147224185 -0.04997987311371024
C -0.44458623407273595 0.4544830298841034 -1.0934065537558617
C -1.3367988316447839 -0.3979569057187865 -0.18267676486047682
C -0.52699341588983 0.2810125469510542 0.9253858739282071
H 2.369096408203913 -0.07162986500485759 0.9404715448163027
H 2.529510725825522 0.07410723158303675 -0.8772683307230262
H -0.2462537116650727 0.00773802586060592 -2.0789731499114907
H -1.0214007186099572 -1.448358673883811 -0.28735969928489913
H -2.3897962891388866 -0.16273711558051066 -0.20939751127097325
H -0.9759553022984182 1.2926241950619912 1.095398427221633
H -0.40952742203409964 -0.3398842944542159 1.830574021222092
