13

C 1.9429165071453394 0.4892328854015796 0.16765638835205374
C 0.6613281434843987 0.24161281656883438 0.10334798871227578
C -0.3297242374620272 0.956530181078686 -0.6758490195752798
C -1.3864212510358407 0.19983810521610418 -0.8945946029581787
C -1.1538274870510048 -1.1055260489947405 -0.2560994786533283
C -0.12081882550093354 -0.8185179978851289 0.7956371735725996
H 2.633459396751435 -0.09652705195995867 0.7811092083274741
H 2.355928184590309 1.307248873202267 -0.4057319817400236
H -0.19846104867463804 1.9760673956473795 -1.0226892851399187
H -2.2942794742613946 0.4868888996902946 -1.458412865799253
H -2.052472635654014 -1.600843065224823 0.10937003607787547
H -0.5546317834460921 -0.3346246869269506 1.7040874386114235
H 0.49700451111445787 -1.7013803058135784 1.0521690002123143
