28

C -0.6779029575484553 1.6670413523048306 -2.2704509399906114
C -0.2518141701857894 1.201014355968565 -1.139468692294904
C 1.069907926953078 1.6533686158349798 -0.5021614825795638
C 1.501358672416151 0.28114561350034484 -0.1330402630831929
C 2.6611072004290097 -0.17516043081987817 -0.2683322630501184
C 3.912746719416578 -0.6161073038551987 -0.2742499986164663
C 4.661375422329908 -0.36974348582171157 0.9396482521131867
C 0.35874046450647273 -0.43902124084137384 0.4233115559041397
C 0.43858147557552624 -1.3997352641322818 1.3011604464407538
C -0.8048535746040298 0.16683888116747897 -0.22664587276305387
C -2.083623646190466 -0.02572296961840063 -0.026803470701728782
C -3.185627564657315 0.7260994180302413 -0.634880976072487
C -4.347392977050544 0.19768817603928482 -0.22262504950589748
C -4.089644873034733 -0.9059570035270023 0.6612526862710643
C -2.746423877392858 -1.0366904384523827 0.7762280661111248
H -0.05327150817234478 2.4263515452750917 -2.784402446975119
H -1.578965412204519 1.317458154975573 -2.730366609866786
H 0.7961285610596192 2.2693119479094555 0.37419945633330814
H 4.152264275786499 -1.0814978186376505 -1.18349326720055
H 4.700257052378093 0.7105785048849326 1.1855842173748672
H 4.229813959536945 -0.9774501685840984 1.7655127885845194
H 5.716751143962981 -0.7406171960541268 0.8267409008797448
H 1.466827658200102 -1.6740287852995002 1.6363305884199684
H -0.2951067926324963 -1.9880113759538192 1.774342648844854
H -3.1214957645431314 1.5759676591070744 -1.2795102183668245
H -5.313155324765293 0.5765553737401438 -0.5335502306477871
H -4.80437472341224 -1.5318066265571169 1.1557447437436812
H -2.312207366157806 -1.8078694905832864 1.3899254306932851
