35

C 7.285450904397742 0.643018696697967 0.814143527548385
C 6.218862716801001 1.0174449857868657 0.14550835585886862
C 5.133311098849806 1.2917746683903408 -0.5201734220099908
C 4.276505539456378 0.20285562849671812 -0.8559940999445524
C 3.172837504935144 -0.013524458375193525 -0.1658202644693636
C 2.706640246904476 0.7700475016014696 0.9538391530409347
C 1.5799684794588573 0.24128305697819163 1.3669790734196372
C 1.2454630244907523 -0.9307144680548192 0.5289580565098783
C 0.0802607771390711 -1.722826163808752 0.7240971499379567
C -1.068131529780332 -1.0732564045526598 0.6581696057222832
C -2.137278245241075 -0.31447478598949374 0.5514563490479578
C -2.57546362161271 0.27634007836619573 1.808364932523953
C -2.6846410439164017 -0.19717463905687915 -0.7782203724479229
C -3.8760000070778746 -1.062923664875677 -1.0322213849009367
C -5.013213590768642 -0.8047419698908198 -0.15925800175167312
C -5.654009654206827 0.32580569729414216 -0.35251823334864874
C -6.234305310351359 1.480977855016218 -0.618588394582724
C 2.184946564391809 -1.0690054278747518 -0.3637471770297651
H 7.168762539661598 0.636545238715061 1.8657393494706012
H 8.120490770791976 0.3963971866451223 0.21461706334649938
H 5.012188062268004 2.330925033986345 -0.7409231666679229
H 4.499969242928712 -0.46634964946198026 -1.6705716832580801
H 3.227184737793767 1.648652066028109 1.3633287942141459
H 1.0058340592350925 0.6280313835094201 2.1985962503292265
H -0.06656147870193456 -2.741855247168798 0.9146817736265654
H -3.509319417174316 0.8456470103952564 1.7694048121257615
H -1.7759228707813601 0.9993442644032865 2.1404551548340707
H -2.622021797819891 -0.4900890891723121 2.6057796204388914
H -1.9870066483517528 -0.16959033026382084 -1.605357499196576
H -3.5492060725642793 -2.1284184795494987 -0.8484940768431075
H -4.141409226360952 -1.0357935241812093 -2.1163406747349347
H -5.412043479507105 -1.3955720218799847 0.6208381103688672
H -5.842083449993005 2.2985346534053726 -0.07668109055660156
H -7.007895637984843 1.4222640204505208 -1.3365244309168958
H 2.2378368126619868 -1.8395787020225698 -1.1359583586226054
