38

C -4.69379785401579 -0.9294641971776557 -2.021269195823917
C -4.352102636794829 -0.682833698337491 -0.766875106732104
C -3.951063629464392 -0.4040668259044647 0.44185277220420993
C -2.6330307613013004 0.2644186686722933 0.5420535967678336
C -1.5902792914349748 -0.4160122724953099 -0.204803876876729
C -0.5350940108385362 -1.0462366226119646 0.3586376113444572
C -0.4324070270423324 -1.056381300736012 1.7725937878610634
C 0.3850940697787266 -1.5148860978821532 2.6564647161431894
C 0.40987509515905696 -1.6438832709603903 -0.5722978307271532
C 1.4755054592856003 -2.3059494867359738 -0.25037909960123517
C 0.18066881777859284 -1.5068851698769918 -2.065756457756259
C 0.27502631120168103 -0.11811618254560469 -2.527961824827659
C 1.327435245074802 0.5757911457431122 -2.124223955818202
C 2.208475550488615 1.393469938839742 -1.573527533779829
C 1.8857255963444028 1.8316811055797364 -0.1739616516318285
C 3.1848316482859516 2.4122738389533707 0.37840062498074567
C 2.9931387030433965 2.880798009180142 1.774999011199755
C 3.868228923908484 2.612623946239059 2.7365376755651685
H -5.2316010908161905 -0.14914253778638503 -2.4858714036133707
H -4.376930995902842 -1.8734246685272284 -2.37480666021565
H -4.607277025618265 -0.6840818888137594 1.2150317083629856
H -2.3583293309894464 0.6120512663431189 1.5240144273883818
H -2.80773227702032 1.264266416127546 -0.032894085188807334
H -1.6515921028124563 -0.4434277565172456 -1.3091915162718675
H -1.3171063457633732 -0.5383895474294863 2.2982333200864278
H 0.12925627003334267 -1.321685562951301 3.7528786967035166
H 1.2852493759419175 -2.056873024685618 2.5280860068416087
H 1.8290258602922833 -2.5185690238229417 0.7005189897796342
H 2.0981513901480584 -2.7016462931591616 -1.0888491603349417
H -0.8292430837099356 -1.8975102833635502 -2.279102052584193
H 0.9310162329070787 -2.1706160936587335 -2.554300945343282
H -0.4097111288940295 0.4127589830265749 -3.158408033894608
H 1.561697245834426 0.9505492881904126 0.3923252232073272
H 1.1328708383766557 2.649152453184938 -0.1815204387902856
H 4.0060562625406515 1.6704564148485403 0.3222931743222791
H 2.1241910749381447 3.450604498780763 2.0117265554565624
H 4.770028470515472 2.0392932580765213 2.5626997049225877
H 3.7157501505431387 2.959892574191714 3.746742363268274
