20

C 3.729108839060386 -0.8192064407634384 1.219001046191957
C 2.7944055222766226 0.03863374463557487 0.9115936575819958
C 2.1112195794314843 0.9125132363390562 0.21500133123085874
C 1.8316677729516022 0.7969839811165182 -1.1897311457207809
C 0.6886870712224391 0.2411806024779269 -1.5874587945693839
C -0.2940061283655046 -0.25739279135032944 -0.6032138178309215
C -1.414422118370963 0.7654838159148991 -0.39368797253463206
C -2.3879363061386956 0.25691269044909393 0.5898044454712649
C -3.6751062018401535 0.0740039329406091 0.27382441170418836
H 3.3364224143432635 -1.7355558318431878 1.5613330546234752
H 4.772992672655563 -0.6495475930219423 1.1430787729539158
H 1.7846602241818368 1.716402638402051 0.7893516970594396
H 0.5340442388984582 0.1817620036598056 -2.65277988868211
H -0.7304601289581513 -1.2193430894814223 -0.9508308076750126
H 0.24362012141170838 -0.45547478270786573 0.34250649267815925
H -1.91813878696424 0.8681175660714606 -1.3936697138119485
H -0.972536831099278 1.737157134411024 -0.13866313842456385
H -2.0477862122741843 0.025876533964976828 1.5957503094241972
H -4.013442164375325 0.30252546013759773 -0.722532161868548
H -4.3729935780468026 -0.29436365047346713 0.9913222221984234
