18

C 4.412864868230273 -0.014325529722413254 -0.33423286289770465
C 3.3900602747722512 -0.8173631610293419 -0.4097715316673716
C 2.1962445456563056 -1.3287271854725964 -0.3244590203990936
C 0.9521294939227443 -1.6160422911927452 -0.19773046746423498
C -0.33841585167667776 -1.8160795744109943 -0.004865661752451922
C -1.1590419064832207 -0.8829777647291603 0.8054581630617809
C -2.390047691221092 -0.45402795662573725 0.1222370182386168
C -2.647425909971985 0.8274309154445256 -0.07596085798187362
C -1.7150904755918854 1.865057525037465 0.3782202422354523
H 4.748931834857912 0.48891447305902663 -1.2262976805430323
H 4.95679358683223 0.18474519450701002 0.5792124118055341
H -0.798855206399049 -2.672193632961985 -0.445007484605832
H -0.5500223161707929 -0.03905046154047906 1.1315362137307774
H -3.0857988728505203 -1.2075477014915956 -0.2176601883309006
H -3.5587601599823535 1.1095196877841862 -0.5801294818814481
H -1.5436127829930621 1.7085214950644187 1.4777566025318578
H -0.7215138195223753 1.8034129572347617 -0.12264135587375531
H -2.1484396114087643 2.860733011045604 0.26943767018184656
