33

C 7.150706895575427 2.12242118693591 0.4153493175437524
C 6.4514487672823275 1.059421821899176 0.12601805679647884
C 5.648393201261917 0.09147033427694955 -0.1352934837066483
C 5.033167000136407 -1.0576370992755337 -0.20228680307577798
C 3.637056715148423 -1.1647816682657273 0.22626127609759258
C 2.7046792651868685 -0.5662053528722458 -0.4605794584219498
C 1.3240645883941367 -0.6893852081808463 -0.011763729742153057
C 0.9802319969807171 -1.378663621375399 1.056415174778593
C -0.4132461711562589 -1.5143704437615946 1.5259224059981684
C -1.3468777959492821 -1.0344997387658441 0.4609926187123826
C -2.222543162754556 -0.04223282198869521 0.5570883437121793
C -2.9215900261723307 0.08146421731541324 -0.7160233354314846
C -3.866406501779115 0.9546782235576416 -1.0109647273406666
C -4.344265605239147 1.9306189545520842 -0.08116172074518677
C -5.477250217583055 1.6507468865053327 0.5264933518004671
C -6.613741421529694 1.2906022029289062 1.0867392273379146
C -2.3652634017290453 -0.9440128626343107 -1.5748740182649712
C -1.4447505396769118 -1.5938662023370929 -0.8817924036461089
H 6.713314388510582 2.9822916608554744 0.919972121110308
H 8.204120352035414 2.097399519453027 0.11993216783384752
H 5.533124648755727 -1.9449882023950866 -0.5706906137090416
H 3.4131243678549072 -1.7460602192769596 1.1140570476356246
H 2.974705320041244 0.0012544054216418223 -1.3373228914538835
H 0.5628413345747683 -0.19040871716605867 -0.587534190285204
H -0.6035574209910377 -2.6114842623153183 1.6763944729103721
H -0.5392425745418955 -0.9759805811557134 2.4637589745023294
H -2.3825548755095123 0.5681028966169857 1.4410203321646675
H -4.303563588053309 0.9339281194502642 -2.005227558800495
H -3.9254332187156993 2.8593528322372936 0.20229093299626993
H -6.5037389544815785 0.7349659152183422 1.9804006200868456
H -7.477949454104844 1.6061539146369814 0.5651108126480382
H -2.699059576032909 -1.09125869263056 -2.5994372835656905
H -0.8799443357389188 -2.4190373974645443 -1.3176700648983042
