22

C 6.146384397771543 -0.4518151517058948 -0.15051005395502987
C 4.947981958872467 -0.05113075259519878 0.15912877397682013
C 3.6797420368168354 0.17932012907293077 0.33774898356958016
C 2.450274760122946 0.6156311637670183 0.452060410109954
C 1.5403010838896645 0.44664694371844976 -0.7022627344318524
C 0.15412815385040393 0.8312513520316335 -0.3339392285039603
C -0.8136384598099663 -0.055007906901423806 -0.5330614535237714
C -2.1979025156414886 0.3345962545214253 -0.1630549034345611
C -3.1189697020781044 -0.8621194754094255 -0.09030472780676413
C -4.497440911706538 -0.36590973815430783 0.2910546521095874
H 6.674507143026354 0.017392685480869058 -0.9664160910314907
H 6.662044151006645 -1.245191066667305 0.3695936539899349
H 2.0795763746885396 1.0909405707200017 1.3523284000942952
H 1.5929300320689075 -0.5796518540637412 -1.094657758028764
H -0.03241238302418601 1.8029300889086635 0.0791044918671678
H -2.1942291739373174 0.805002844067062 0.8323654045054502
H -2.6248594958406413 1.0451961926394953 -0.9084676220466817
H -2.740483659467415 -1.6014087754451642 0.6413377734779482
H -3.157257875139538 -1.3174054540183338 -1.1087293086523495
H -5.251708854708227 -0.7932970099110104 -0.4051643118252413
H -4.7193971165949185 -0.5957318578412873 1.35065353628958
H -4.57956994416593 0.7497608177855477 0.15934830958375232
