17

C -3.305580899879258 0.08767579409766882 1.5953534747513367
C -2.5992484405660594 -0.3270205182871642 0.5555570005369144
C -1.8644862179877317 -0.6470878755848467 -0.4754670606627543
C -1.0286129923974048 0.3844571872579116 -1.0177901155272409
C 0.2724521917490815 0.3592076081965954 -0.7657626401814521
C 0.8233408431628013 -0.6887131156242143 0.03810345913196439
C 2.1106224741136237 -0.7433420372139095 0.3074895803913883
C 2.9917876255168045 0.31268874170399164 -0.24297487344692204
H -2.82268350071017 -0.04426743200623659 2.5236726742771736
H -4.246380766799326 0.48941247018317624 1.344328218062315
H -1.9727249719424238 -1.651001053177649 -0.7984689074017857
H -1.4136750601534087 1.191694946523537 -1.629915622308855
H 0.9403522196878168 1.1200947343130458 -1.1565334039722084
H 2.508956912228107 -1.5420715857934502 0.9163008669391184
H 2.717937268251245 1.2720529547136545 0.24829460005249462
H 4.0672712930509975 0.07702813974813535 -0.10639001693205728
H 2.820672022675228 0.3491910409496209 -1.3357972337095163
