44

C -11.263578079928442 -0.2932939317614907 0.9004726409707079
C -10.144814218603917 -0.28346680542698316 0.21062530733822676
C -8.943098989683559 -0.406261600058532 -0.26475700249198203
C -7.700409413216711 -0.5617871387656903 -0.6140734790886916
C -6.668762769162761 -1.1201594538442639 0.24545867303691163
C -6.000702989737007 -0.4080346265924255 1.1278780145131224
C -4.959837071514359 -0.9987701645402516 1.9867841926346996
C -3.7310535728684573 -1.342513860058837 1.2259081916944938
C -2.6194415859184192 -0.5979115005537647 1.291854186539308
C -1.4716333909651682 -0.9959464254816813 0.5261425988121117
C -0.33781387513712746 -0.3465287112303298 0.5147550597254367
C -0.13611388773772565 0.8622370478277785 1.2938934250895269
C 0.9207682378629086 1.5341788430565466 1.330907237170402
C 2.1989532630466297 1.6364861898494436 0.8681196419282788
C 2.915708443765411 0.9064868949473287 0.0460411485994596
C 4.315888934193047 1.266107487889296 -0.28404608034981776
C 5.125386274662511 0.6107131946196511 -1.0916913142469458
C 6.422358535224915 1.2695630900340615 -1.1647148981427555
C 7.473476272937166 0.8965380719963203 -1.8719203110310207
C 7.41870931963267 -0.27247192758856337 -2.6842001560430826
C 8.127293578565668 -1.3052828780853096 -2.281359324496573
C 8.864011279680504 -2.2832106993656063 -1.801843679888217
C 6.290624499329474 2.435398812938788 -0.2765227314537761
C 5.0630871076114925 2.4033417119523133 0.21521793564245478
H -11.301005200415416 -0.041410862857809816 1.953284850598894
H -12.180599681004015 -0.5584347893514623 0.4162781848201421
H -7.416573925474512 -0.2555410576789732 -1.6090856079364448
H -6.433506153312126 -2.1711879255976356 0.1611786718836328
H -6.20218524762934 0.6656828671853648 1.2527423603133163
H -4.697262030886731 -0.3598512999892683 2.83024555523196
H -3.7078366445437765 -2.2117994598297868 0.595031327763728
H -2.5900723220157924 0.2813957043828511 1.9078717590569723
H -1.5203732293513763 -1.9178130241203941 -0.11214092907138565
H 0.4684458078552539 -0.7511474036432717 -0.11245353392445594
H -1.010015968383555 1.2256881462220217 1.9199857847566937
H 2.7959075775826183 2.5356220394874893 1.2602453152678461
H 2.5160424239565837 0.023381415976855974 -0.4173573272246432
H 4.865603491605616 -0.2908823521282337 -1.626940957506969
H 8.364157313797039 1.5008363349108482 -1.8135743481177637
H 6.8858077898610865 -0.44839409654015455 -3.583059574429686
H 9.86360686221782 -2.2908834220379672 -2.150575763959924
H 8.356769400008536 -2.927542801221896 -1.132760644534871
H 7.081573453109423 3.1521801825613336 -0.09600002386245454
H 4.70251038098265 3.1616135254242903 0.9081556244135792
