12

C 2.274233341006566 0.4522281871641562 -0.009151317478755097
C 1.2522922548404178 -0.34606526691955836 -0.11411785258681596
C 0.17244101602983025 -1.095517926151682 -0.15684455430480598
C -0.9825514398710118 -0.6138499090482723 0.5898945876730828
C -1.5456400250069844 0.68506156146512 0.027729413247724342
H 2.9334554551625733 0.25326563205784186 0.8028571636489468
H 2.328027175264513 1.2186192984671882 -0.7567523022095394
H 0.2828337535439156 -1.96821008950933 -0.7386872912808202
H -1.7277941724273147 -1.4087454639365136 0.6608704885295411
H -2.2152054750061176 0.3727722258569126 -0.8083983178682176
H -2.091511309783291 1.1937664426431422 0.8432904305176889
H -0.6805805737532291 1.2566753079109099 -0.34069044788801917
