22

C 4.877853958683052 -1.4339711237845374 -0.17956667561754963
C 4.174648106081554 -0.3312787563375012 -0.2944965902791506
C 3.4313742346176164 0.755475288782315 -0.3305008930403843
C 2.58039735964214 0.98857213623936 0.8308202453074088
C 1.355958127222457 1.7121532973702098 0.7803401562374602
C 1.2684851206919117 0.32347603979314254 0.8416510217058486
C 0.3830668328754083 -0.827518671904746 0.8806046176566618
C -0.6853827426838054 -0.8909048701833588 0.12803123011766243
C -1.8909145231594116 -0.7960017277296718 -0.3504670775176062
C -3.14326599582084 -0.5911804042569543 -0.6079986266005694
C -4.460236815653593 -0.4906979129974746 -0.6452790512087184
C -5.1486695158482 0.5975394338656818 0.10119639258404932
H 4.409007794204544 -2.3019598720377394 -0.5580541942722258
H 5.827078964635142 -1.3040109124776047 0.2813932974391944
H 3.5501097202085465 1.3257166227508261 -1.2094070030354418
H 3.145808079462143 0.9865316044066973 1.8088292848610261
H 0.7620867169920682 2.615979124883268 0.7309398340975058
H 0.5911281230440286 -1.6493147625241396 1.5303213376694116
H -5.059473849645877 -1.1885523819299928 -1.2121485158887617
H -5.679578523558443 0.08998500886513638 0.9505141877879291
H -5.898044221730612 1.1045153284223923 -0.5279108021694344
H -4.39143695025804 1.3054475107843657 0.5223982102773833
