33

C -1.7431698652491103 0.640524933033759 3.680565686301345
C -1.5337385189312063 -0.021701942260255284 2.577534482631185
C -1.38208627655805 -0.623912959579333 1.4215915225317828
C -2.078799683670503 -0.07194552689533153 0.31084602130794164
C -1.5557808409927731 0.6956962700297681 -0.6248206458166569
C -0.09516791954878578 1.0510229780598246 -0.560446583267951
C 0.5595501943610172 0.44043732890470877 0.6117135951904424
C 1.8280895650964397 0.047451533604310765 0.5604748297269146
C 3.041266004166514 -0.1604521133403466 0.12210433538511228
C 3.3413375804373953 -1.3510278025472162 -0.6494378827721752
C 4.4792208676707626 -1.9967635001111081 -0.5288724016263825
C 5.495629449133378 -1.4998804500390883 0.42417764626709287
C -2.369774906987265 1.2052456172975616 -1.7193531794446524
C -1.7635737264923372 1.9762247883523318 -2.6261473343286856
C -3.7591378067479284 0.9186771857720047 -1.857441007964832
C -4.333922923126373 0.17296597141559641 -0.9753967208754463
C -4.855600447362942 -0.591628904062887 -0.045840903192878237
H -1.0593968014616466 1.4390220670007667 3.8693777942674084
H -2.5715157761226313 0.3074753674971177 4.261619248176133
H -0.7399093110274587 -1.470305165419499 1.4668035785811009
H -0.010156019818248072 2.174725730881608 -0.498511079508068
H 0.3533214260230708 0.7829181301622227 -1.531311367226743
H 3.802485101596144 0.5553136328663392 0.3336100117162274
H 2.608835959105181 -1.7499616113100467 -1.368452830186434
H 4.662136926882265 -2.874684046735631 -1.1191703880681187
H 6.287274685258602 -2.2772937645802602 0.5886083966373552
H 5.976875987436462 -0.5628138520713439 0.05254239515363725
H 4.953970372074136 -1.3139650813123 1.39469096991951
H -0.7163009747120038 2.226629119322103 -2.5739505321766623
H -2.3451504387778175 2.358232108974045 -3.435030551698767
H -4.409869789176449 1.264032125426334 -2.6402864785794975
H -5.243360317175667 -0.06221722086968333 0.7966992946355731
H -4.823581775301131 -1.6280409474669388 -0.24667809770838584
