35

C 5.682953113265741 1.4653754617944292 -0.030111735038117312
C 4.980807564236349 0.3849684464285305 0.26191216994192545
C 4.210198596479337 -0.6297487430338478 0.5194017360257872
C 2.794513481327627 -0.46065584435124374 0.23445670596835783
C 1.9550644810333826 -1.1011550855579522 1.0205230433515042
C 0.5039562688988234 -1.0052116545308558 0.8220207648206594
C -0.3298167196368414 -1.7771843349385845 1.7904088653692167
C 0.02309659194326266 -0.29182510463873595 -0.13648208595477235
C -1.4007069199824445 -0.1346018072385151 -0.4024775280735092
C -2.4502129121434653 -0.605194658726235 0.16891183709032417
C -3.725993535093869 -0.13327501521463717 -0.5014057928200343
C -4.251049902946071 1.0379144075353868 0.22175093800124707
C -4.985102542263311 0.8713053372602432 1.3061733020690218
C -3.233587798665108 0.22468419919756766 -1.8787380979179116
C -1.8425494597461394 0.7530241447967254 -1.5556575257366454
C 0.908750365896899 0.41347322647462953 -1.119669046585873
C 2.345923223129277 0.3987200998776766 -0.8425531163876292
H 5.773014475089947 2.1523192153216018 0.7664123805320441
H 6.052944385549593 1.4861497358546776 -1.020166206518187
H 4.685043225435823 -1.4814459860321216 0.9113333314783684
H 2.336569910805162 -1.7233109045980672 1.8452029301780675
H -0.9047658594760893 -2.595245303910348 1.3226855250064766
H -0.9404316581333173 -1.1407555819133854 2.422402543716772
H 0.3793333258339401 -2.304954585615103 2.5103726135155275
H -2.5660864825248835 -1.2586319759928533 1.0187234937800662
H -4.035779545304704 2.025475147194027 -0.13447371672702702
H -5.357088324491479 1.7589739163735088 1.816148778021633
H -5.204172402347051 -0.13487999382350108 1.6687339556503993
H -3.8511377736803203 0.9846808220681634 -2.3730809815757428
H -3.2106300776622345 -0.6878175869318498 -2.488497354291954
H -1.1844917649732087 0.5775547572653599 -2.423156476231715
H 0.6582808275818909 -0.032401562526195464 -2.1259620575753564
H 0.5153836343170332 1.4627763793800832 -1.1760559610607106
H 2.904514302667003 0.06945857708284965 -1.7745531200060398
H 2.7632559055806327 1.4314418556680562 -0.6445341120174337
