31

C 6.4741774683677695 -0.6684710014085931 0.12888532606989017
C 5.400621325735575 -0.5607427353678088 -0.5942777738562302
C 4.5322825799270445 -0.3833939910785002 -1.5440195759860043
C 3.693277983470577 -0.06510785681889014 -2.4719542211383727
C 2.2639589531098285 -0.18541717323696708 -2.159245391627825
C 1.6238170994196506 0.2099635137538397 -1.0771771697644046
C 0.213407609108604 -0.13332298815620763 -1.2394838412580362
C -0.3755225590855248 -0.8797568754571103 -0.12734869541538954
C -0.7681247541340007 -0.2405558137491707 0.9359538442404816
C -1.4120328857321558 0.4728744798848179 1.8130626124911278
C -1.9121855110165533 1.1155891769379387 2.822856009086237
C -3.21715230755755 0.7352224466106693 3.4088125974689922
C -4.298803298670965 1.0225474021021903 2.3736594529395822
C -4.044237692506383 0.23423441100239434 1.1494432590274275
C -3.8534793144013864 0.8702893265175291 0.003847248317022975
C 0.09155529760019974 -0.7798562239011742 -2.5469497319524614
C 1.2991935368833234 -0.8065478652307756 -3.08026760096885
H 7.390927542465627 -1.1250993198634338 -0.20696245421245887
H 6.450414968408728 -0.27601409469887767 1.13276940968429
H 3.9899161122414966 0.28527863868134157 -3.466888860373887
H 2.082974815527816 0.696368548378266 -0.23875008176340803
H -0.47944233466796443 -1.9512739757920126 -0.19725493703120162
H -1.3810397763676914 1.9453910200415594 3.2565389376736316
H -3.2753567041723897 -0.29978642942649947 3.7436706701174356
H -4.338601950389799 2.1035272118541526 2.1439195291527735
H -5.302434773669677 0.7318231509318522 2.7547690610063365
H -4.0162270408181415 -0.8673420043438735 1.2032422230781312
H -3.884317829431357 1.9467834708885663 -0.03036154584949037
H -3.668573500739314 0.27440903624695945 -0.8809814240433709
H -0.8217194587337149 -1.1556710170828906 -2.9739400644614724
H 1.5427263998281855 -1.2162424454982912 -4.035566810650719
