20

C 5.133851860072666 -0.5677017921694647 -0.08866655655827511
C 4.316116121095947 0.41509894252541496 -0.3143277893144247
C 3.2899447025616806 1.251273383841694 -0.3804913877324597
C 2.0478215734100744 0.8605541423934909 0.31963882256131043
C 0.8899230588306136 0.828409525597289 -0.3040378372353106
C -0.2996759919354142 0.43943514981656856 0.423277214683672
C -1.4827704371919381 0.39414173854669915 -0.16612898229592454
C -2.675447322838904 -0.002964348292604958 0.5904534746781808
C -4.024942009490561 0.07801753555076187 0.005507923881192947
C -3.3838011232232432 -1.2635012135572123 0.35972315742630095
H 5.174211661116816 -1.3919287283934894 -0.7667045899325499
H 5.764261517947839 -0.5579954255231464 0.7725961862366212
H 2.1734859224445064 0.6104527017631859 1.3619590163272766
H 0.795312142105927 1.0840202194152888 -1.347540076264302
H -0.20456746925519223 0.18408607422819936 1.4660976277789324
H -1.5873500358007595 0.648639101763406 -1.2117531736575906
H -4.2126299576966675 0.19666987089105642 -1.074350414101425
H -4.819662937573183 0.46583593807284734 0.6633397211617458
H -3.8798376585222916 -1.7755213478423273 1.2046158162560683
H -3.01424361606025 -1.8970214686266302 -0.46716664378728484
