20

C 3.0990216136194637 2.0982630025011777 0.5939426094674094
C 2.581181411452495 1.0445117358818146 0.008510400788609028
C 2.060136056866124 -0.042817700763289133 -0.4930044343325942
C 1.6505288714044442 -1.0491398067525135 0.4198836545684957
C 0.4311519301641245 -1.5046296068219338 0.3055933725146278
C -0.8252691355602216 -1.8144114233193316 0.15891520119666058
C -1.7821557836306061 -0.998573274333337 0.9091805047993182
C -1.7163213087399463 0.4643057595739724 0.5209758872865025
C -2.026694842052046 0.6132976064473734 -0.9423598818385912
H 4.142728087390304 2.0616948403358535 0.7469995513339458
H 2.390037321346151 2.8582591667597668 0.8404218334991039
H 2.0050372228437463 -0.0391251773013387 -1.569568913320358
H 2.1930623357375785 -1.5118451881950714 1.214754057621658
H -0.9993996538428251 -2.6229211514445243 -0.49046649427706795
H -1.5916263948080915 -1.1455482432088417 1.9918610557303462
H -2.8139155796040973 -1.3658534526291 0.7214751213239883
H -2.5523297172674275 0.9682081104129644 1.0851276452475638
H -1.0464722132990198 0.5281973191767214 -1.4903613829755982
H -2.7481635954085846 -0.14610873990433287 -1.3028999467882434
H -2.4505366266115542 1.60423622358395 -1.1913627572406478
