26

C 4.265160102388862 0.3203180591939376 -0.27097861245884725
C 3.310661755103285 -0.0875513656684487 0.5218903439471696
C 2.1047470017252192 -0.23346016631654917 1.0373241486409426
C 0.9157655196540527 -0.4215340111764728 0.24413468842377445
C -0.13667170283884458 0.3763130629431215 0.4061885193272575
C -0.0865795486771125 1.453233351137026 1.397461436913923
C -1.3398717356075698 0.14379007813576977 -0.4333616101983309
C -2.5541786114107277 0.765535203589935 0.16185988158096398
C -3.3413674552725845 1.584784126903262 -0.5110621330564608
C -1.523188583968828 -1.380553089258518 -0.46604229311615186
C -0.388932097182948 -1.9183445260503316 -1.2862080627471926
C 0.9449686696054551 -1.5370794576282483 -0.7410400372471918
H 4.848186308172432 -0.4875415533564607 -0.6201798043485921
H 4.454320437561384 1.3238759181638933 -0.549387645287631
H 2.1188712278577424 -0.19477753102182796 2.072905261594877
H 0.5922881543774684 2.25322882637344 1.0679301404036425
H 0.21507975944017646 1.0137822949030175 2.3849766153775596
H -1.1144934768180734 1.8660476763991718 1.5793468876565135
H -2.807054970956167 0.5402947233457454 1.1881710601111455
H -3.1485943377342904 1.854212074492899 -1.5420636913428019
H -4.213547583692781 2.0157302881890136 -0.043783156939460624
H -1.361381103935375 -1.7115960741062834 0.588073024092731
H -2.49405893480947 -1.6529888683970893 -0.8700657515836991
H -0.4461955029589189 -1.5233278394908611 -2.3416212584667537
H -0.4829896282606788 -3.035895714904592 -1.4114160321008595
H 1.6690563382384704 -1.3264954863946405 -1.5630519191764918
