20

C 4.370630091892009 1.22303299235105 -0.716885871366704
C 3.58319637692114 0.181271471129005 -0.7541471554074751
C 2.6761787510980835 -0.7356377605465589 -0.6635997912483775
C 1.9480657397801817 -1.7069020947417273 -0.18796783785598556
C 0.7277166576580952 -1.4750212823843143 0.5782298798497333
C -0.47494660361044 -1.479328623881532 0.030069554880810916
C -1.6113569721920535 -1.243880562963355 0.8528370295005968
C -2.0490485600240285 -0.0027096988538746988 0.8919891741170727
C -2.462620209035367 1.2423783520856724 0.7878643516444298
C -3.4031176211213063 1.511998395292383 -0.29397457465223475
H 5.42223691569237 1.0532294418545056 -0.5586964851318106
H 3.9502355749611513 2.2073761771751244 -0.843791285947083
H 2.2333912853427846 -2.737350640618289 -0.3508362185907926
H 0.8764073152394815 -1.295325648549473 1.6490018685740664
H -0.5293029716070061 -1.6651728161351838 -1.0339229568376065
H -2.1809551391377524 -1.894989689337632 1.4493457764025852
H -2.050361250243539 1.8888135516355922 1.5121480991446454
H -4.462144993482568 1.3646867924635677 0.059944858743241056
H -3.205028795574856 0.961019518905625 -1.2231572161806048
H -3.3591755925551006 2.602512125120345 -0.5706910844197104
