25

C 4.717275854539447 1.881177798795701 -0.2521167416133969
C 4.973001485360727 0.6146570169285589 -0.5387235090003762
C 5.149413889223726 -0.6617400265606108 -0.7752875782910874
C 4.173689764539166 -1.553342472453567 -0.2244636949065571
C 2.944421880133324 -1.1968303300753194 -0.06598996751858804
C 1.795395217863741 -0.7217002096047064 0.2876821850458806
C 0.674718113666878 -0.15431691034014053 0.6079338069287243
C -0.5993834639053716 -0.6753550478865242 0.11832836134400258
C -1.6386415259182563 -0.7843851000570948 0.9079037747534371
C -2.897874264457755 -1.2892241925249248 0.4620918335117196
C -3.6868737090698014 -0.42098335622132604 -0.1490380988483427
C -4.425136079055966 0.5328578391916847 -0.6596808988714769
C -5.250855609560127 1.2703435390973628 0.2917864313642239
H 4.10977458823617 2.370829305737663 -0.9628230438699205
H 5.1577334967555934 2.217706604667792 0.6465068109953576
H 6.010059885314804 -0.8802089496782651 -1.3568930943314281
H 4.524163125881149 -2.5589250453434085 0.057449082125169665
H 0.6218519235327643 0.7195200259313965 1.2431704903100211
H -0.6793251495744043 -0.9737404668127113 -0.9120996248918297
H -1.5398415548657103 -0.474869221726901 1.9585225574498137
H -3.3201164761228092 -2.2498961633727017 0.5357384643950884
H -4.321357428666115 0.6421889833991462 -1.7037965120098804
H -5.9168755115792315 2.0125457842208863 -0.22616969756596453
H -5.914167319029043 0.5494202781405103 0.8170622681198445
H -4.661051133242666 1.7842703165473244 1.0667412959092246
