20

C -4.586754154556249 0.36011023350721316 0.8607596680518105
C -3.7792618596910454 0.33584696082707965 -0.17142465994199582
C -3.050236421657176 0.13362737088832077 -1.2175906682264162
C -2.233403176376533 -0.07100653472819733 -2.2228493949889296
C -1.2512936207516823 -1.1401076276165638 -2.100012638289698
C -0.3821030907843797 -1.235475449413842 -1.137352406518643
C 0.31878838672985144 -1.3266453771919038 -0.04489608581548602
C 1.3179251537830123 -1.242291354658648 0.7868489570211142
C 2.0623526629491282 -0.00451738465946708 1.0713012354031848
C 3.445532914759423 -0.12680500901330546 0.5522258252290377
C 4.491492450771604 -0.03486633063461979 1.34967954254771
H -5.44287403149332 0.9889318066858729 0.8766390911015445
H -4.379092881246952 -0.2666632844241258 1.704947073827644
H -2.282424528821792 0.534156713321296 -3.1216512472660463
H -1.2620452164673626 -1.8953491572512984 -2.8711318086623803
H 1.5066084541415021 0.8365611426656612 0.6108772202337629
H 2.0532725904413733 0.1715311470631972 2.164964567846792
H 3.611005212312996 -0.29551823798044075 -0.5041977306760617
H 4.330114783648074 0.13350228932571517 2.4046237866857862
H 5.51239637230952 -0.11865682217658624 1.0082396724373068
