22

C -5.186208013556035 0.9585067355660881 -1.4852076334716768
C -4.718704501683646 0.021855523659871524 -0.6967816003237148
C -4.156945956710039 -0.866807300487701 0.08898078237273177
C -2.7214548597870234 -0.7239026879148925 0.31755573960031486
C -2.2233993007899686 0.6032244523844944 -0.02640333865074013
C -0.9819965577221264 0.8022641579793076 -0.3811150421701783
C -0.062315558553456954 -0.30624919170670317 -0.44084650969687755
C 1.072259914256887 -0.18548465346250914 0.21152531785954726
C 2.348376402770725 -0.07531169850477547 0.4476799214145301
C 3.5069932461229434 0.2619610949375568 0.8941452294402591
C 4.757598204243684 0.22834944970938884 1.3232066868125596
C 5.843000107640156 -0.4232552002345292 0.5755380874503602
H -5.165672217262716 0.7101425315113321 -2.525090012972688
H -5.520805958379087 1.8340974641294092 -0.9990319607861967
H -4.827549201205425 -1.5878606208074666 0.46451290602389117
H -2.1941277871298395 -1.5475296607448257 -0.21056960147150489
H -2.882044563863089 1.4578869469487294 0.006548428757617053
H -0.31504275834836887 -1.1846201919074681 -1.0015481567416264
H 5.006268063699793 0.7000506987586163 2.269357789806449
H 5.555415355702273 -0.5954049034974419 -0.47426953139986155
H 6.748467569492549 0.22001244082805435 0.6453725166621045
H 6.117888371061332 -1.4130456335997073 0.9964399814830691
