27

C 6.745176535238763 -1.3345198283948785 -0.11709052495143156
C 5.581103420928176 -0.9258814299384022 0.35143936690364413
C 4.437759191890008 -0.4405773013450067 0.7755474957999815
C 4.116042174102558 0.9167667781962011 0.354440019500994
C 2.9295412170390103 1.4997380020797608 0.961301711104384
C 1.7995804327994058 1.3156758505720607 0.31957559752896764
C 0.7128023318048743 0.9908737877211133 -0.3498774448076952
C 0.09429061328441136 -0.2419146644022219 0.023529704021126713
C -1.2219337706394315 -0.2603380832734758 0.1950788763052315
C -2.488736890701145 0.03865900030372586 0.2842239192028009
C -3.3572115361481294 0.12235295102527327 -0.9026662242432116
C -4.588651344857911 -0.7668749767240298 -0.7585705663918696
C -5.381024548666103 -0.3078426596544643 0.47064969895621134
H 7.5651770988910405 -1.1212109306999654 0.5130004298504164
H 6.688410549463367 -1.8159102770746363 -1.0563943767917396
H 3.883030643005129 -1.1061422266926262 1.3802147110640077
H 4.984974274354721 1.5881579984301633 0.5653072754873716
H 2.8154140992803023 2.055651273261987 1.8468405803845227
H 0.4480321156851221 1.7019955100320194 -1.0839137367824825
H -2.894663582003847 0.23049741640503943 1.2541712039796915
H -2.8264188847190574 -0.20800511674642164 -1.8252186820306835
H -3.715884527133095 1.146608446517932 -1.1084149838757074
H -4.317915613669983 -1.8386430091272132 -0.6855948412441346
H -5.265214255536647 -0.5960411854463036 -1.6206359054286081
H -4.825186387723175 -0.46810643570350785 1.3986060566982883
H -6.301902312499319 -0.9327405207545468 0.4826732785961298
H -5.61659104346944 0.757771631432142 0.3110985662015251
