20

C 5.628794947062166 0.36529768891846104 -0.5852662113951828
C 4.487207226353648 -0.1912594357212534 -0.27308180365618434
C 3.2650686209210145 -0.6401270757652504 -0.2743905343807785
C 2.089058085345204 -1.148461916460592 -0.042183449391124575
C 0.9803096855412942 -0.21848733879446006 0.22360506573116323
C -0.26783161810090916 -0.5854882108281958 0.042248651773884045
C -1.3500781152409413 0.3279301560023373 0.3036136630134918
C -2.5920973843306077 -0.05989608136200005 0.11545939111178447
C -3.7245173822273854 0.8274449556651279 0.36568274678499413
C -4.964469286021679 0.44395669421035994 0.1791137276098339
H 6.286579833391124 -0.03324845768632903 -1.3547380255367298
H 5.974276168813402 1.2596453003440868 -0.0846669806793662
H 1.8887526648492774 -2.2105236700193527 -0.03507118655736746
H 1.1869269073915694 0.781718303325221 0.5729294449430852
H -0.4845131678934192 -1.5757577398696212 -0.30416682727195515
H -1.1257761135620494 1.3189795854243958 0.6506380253048747
H -2.8025569695078394 -1.0679115329891018 -0.23669034945682604
H -3.5011759078131175 1.8249900428036498 0.7148398469513034
H -5.20725365348407 -0.5439880683384509 -0.16767536490604554
H -5.766704541485207 1.1251868011404478 0.3742654388060741
