31

C 5.633106588656359 -0.7510986665562779 0.4476652179750163
C 4.656534837945259 -1.365856360992462 -0.18387712394195616
C 3.625661401364048 -1.9420297375327986 -0.7529163307712021
C 2.3491919345038195 -1.6935584187133605 -0.1689052691263874
C 1.853024935579416 -0.5288047525667854 0.17501645863368326
C 0.5357767479114277 -0.45381589394992855 0.7578356039249419
C 0.05323545274229537 0.7257552185848448 1.0974266874599268
C 0.7646169861020639 1.9525776767592742 0.9213749822011769
C 0.26066126961752223 2.7922002891518636 0.03854183247646697
C -0.3830446539221445 3.6011550157618717 -0.7808548160498772
C -1.3849006652812603 4.462526978910249 -0.1687962260897265
C -0.2124702479654463 -1.6503240889518964 0.9533273574481442
C -1.1881689893632765 -1.879007710170493 0.11132241993932082
C -2.2018202344945905 -1.9574840492812948 -0.7103817294996444
C -3.415235889106691 -1.3406851019004904 -0.29636086781658216
C -4.257885729666242 -2.105467671857242 0.3633594634586257
C -5.040996539431015 -2.921610260065904 1.0238812917532254
H 5.845595161662794 0.2184040873153682 0.08700507433641248
H 6.069998153111845 -1.3110879678443548 1.2290300961501055
H 3.8755693005014926 -2.53602667224879 -1.5978161610435586
H 2.4135403904282136 0.3762561601154585 0.02957538871296545
H 1.64062845153678 2.3149248894158725 1.3835922348795686
H -0.0731368972462822 3.5043668530295737 -1.783497855052413
H -0.8930279252750003 5.006786422455078 0.6886565142735552
H -1.813319168122615 5.218511278703214 -0.8556685396092037
H -2.2574665246343057 3.9018722016174454 0.2535951072392575
H -0.10828857246598876 -2.4063622205384654 1.6882873974789596
H -1.9753014803229165 -2.4859252652451507 -1.603330009169265
H -3.7611768308300566 -0.34798500229818896 -0.433163056346819
H -5.724610076842805 -3.4624383490590236 0.42788058324570394
H -4.8862911866929535 -2.9357688820477303 2.082105929577494
