16

C 3.9786048843450583 -0.13301113880668564 0.2562538825572607
C 2.851366963628587 0.5067703549271007 0.11560988250562682
C 1.6412948907640479 0.8685945168270884 -0.2811958985984782
C 0.8946052649854594 0.0374154766983402 -1.2051769265996481
C -0.32279485033261296 -0.40638785280185274 -0.9858078497824302
C -1.0939024935740755 -0.1082060790061186 0.25014437168681386
C -2.5091099596024424 -0.5167605866770328 0.06232987635559397
C -3.46566632053739 0.3961004263955233 0.16281243133969028
H 4.12163761171133 -0.9282750095444413 0.9623015915282168
H 4.808008419139573 0.1449024691037332 -0.36651519002579835
H 1.3712918370500595 -0.23144663793313636 -2.129315503132171
H -1.061014749641695 0.986816526905698 0.38364206214658664
H -0.6789105117960258 -0.6499504647666116 1.1237509984993792
H -2.8070283285198774 -1.5359258763368826 -0.1556962869183235
H -3.2256395181430406 1.4443578917282052 0.38191745739726146
H -4.502743139477197 0.12500598328712872 0.030590032689724458
