48

C 8.268454260390769 3.3503307438169183 -0.47258845002674105
C 7.262993313902729 2.568688733075092 -0.6766097078808238
C 6.225593524420129 1.8433879987174944 -0.9819415009828074
C 5.2671170259703475 0.9277259933827361 -0.9906447775861961
C 4.092260371170711 1.1852915164392328 -0.24583203412403293
C 3.926877054435831 1.6441272810856546 1.1246834135680321
C 2.971252124593046 0.9711569382086056 -0.9037423913277892
C 1.8420868651513824 0.6110454492106938 -1.4826752443853228
C 1.428770377757432 -0.7385553170549025 -1.2806952014579873
C 0.19033582510727703 -1.0758457636029894 -0.8760129092588175
C -0.9258481767417 -0.31836596608918893 -0.5687014441260342
C -2.1077211252076617 -0.9026639862373205 -0.16826123368128315
C -2.1649543372156486 -2.2968113997298265 -0.07493513351731822
C -1.0863737659629389 -3.062142369885081 -0.37008944579670866
C 0.09087850059212597 -2.447045090784481 -0.7707582325845093
C 1.3615271411740726 -3.0156536048546077 -1.1364605239957055
C 2.1391585132149054 -1.9742835495991602 -1.4354691769874766
C -1.2089719379746433 -4.507875932304705 -0.2535575185888984
C -2.393593105462599 -4.9801404194816055 0.14168963261112932
C -3.5705732835227506 -4.18160179478897 0.46574923903901033
C -3.3249880273746566 -2.720375705939057 0.3100106246086017
C -4.154582226285864 -1.5565114473388533 0.5059091418417451
C -3.426365716424306 -0.4329441944696896 0.21782434863364203
C -3.923616855261651 0.9085893443146288 0.3003842547250775
C -3.29869432201481 2.006392222458083 0.04591606965867962
C -3.982555068149489 3.3367197024744137 0.18732251761593383
C -5.402763784660767 3.1537629873356563 0.6405737114734199
H 8.879013325183235 3.238174702458948 0.4154177969556279
H 8.544249555860992 4.1342963150921275 -1.1583082322646243
H 5.496198869522924 0.05591789908147293 -1.5856799406444975
H 4.856416006307323 2.0599495182400256 1.57550083799905
H 3.5956778360088872 0.7747512739548464 1.7498166811600238
H 3.164369958275359 2.438345008735507 1.2009194225535174
H 1.415759275169459 1.4033490579470915 -2.0165999936219468
H -0.855093082635932 0.7374976577801677 -0.6479281643361263
H 1.5911241092825357 -4.063802857500611 -1.1513627648248872
H 3.177583798358039 -2.080882152308837 -1.7537213919808434
H -0.37010634574122475 -5.151409434257126 -0.4804900141968843
H -2.465901738055122 -6.05574968637619 0.2224902800488814
H -3.9453024651949713 -4.422293726025928 1.4770594004038031
H -5.187745177026521 -1.5280300042611488 0.8267966397777572
H -4.994280535970523 0.9817707259113254 0.6305409090813026
H -2.296128046575803 2.071377252614339 -0.2705035247777077
H -4.006144727054213 3.7516390450469768 -0.8597211050390386
H -3.399980624909864 3.9991553026127544 0.8548876466781191
H -5.43459657467051 2.6450438123718554 1.6271833141763872
H -5.895103032159475 4.1600114352045585 0.7078087295485256
H -5.965713549588186 2.5544864853189946 -0.10307214240522194
