33

C 6.789076436848807 1.156878341266593 0.6260788760994461
C 5.541354428083853 0.7870993774110143 0.5742627684709342
C 4.3167040371988135 0.4388222625015149 0.23102663538500431
C 4.1320077711037735 -0.1542724219296931 -1.0805646784076968
C 3.505029878181595 -1.301321640593477 -1.2702826425001679
C 2.9362942950185213 -2.0898706028638676 -0.2026918846707994
C 1.7212338934015161 -1.7731347464291782 0.1508427729965201
C 0.5456116933214101 -1.3122746456337313 0.5130339335062678
C 0.5436280268316893 -0.2596343743060431 1.5189931016561187
C -0.5866269122478358 0.7439834809503233 1.330626313496458
C -0.5214878840680434 1.423128452776706 0.038381435160824956
C -1.6415190629887189 1.1910493421231791 -0.606731443755622
C -2.5062481513252597 0.3407492240896299 0.2359053671849886
C -3.85693733203684 -0.13849449626206892 -0.14379347385623045
C -4.91999349994816 0.8140880750030516 0.1848559187319622
C -6.131892691484433 0.33726355399828795 0.23540426255316066
C -7.320864264464488 -0.22190675599165463 0.2648297769560208
C -1.907637508990168 0.06468435318819798 1.3799746693125068
H 7.572202421933355 0.4721131041327292 0.8714912939714275
H 7.020298366185135 2.182574360661758 0.4104314401835418
H 4.528809281916109 0.37406663156231695 -1.932883094984011
H 3.394466944191942 -1.7003427995590106 -2.2718576574757128
H 3.349110824961439 -2.8871623261065524 0.3434246199923795
H -0.255688969536466 -1.777374996880016 0.01339626236580687
H 1.4716271023022856 0.3042819175302547 1.5371502371115062
H 0.33734738031287426 -0.7470866349619927 2.5158231614780573
H 0.3052854956389593 2.0118000483146656 -0.3191781241869574
H -1.8975664627078537 1.559867278757297 -1.5969718041508825
H -3.9222168119389704 -0.34521721972754255 -1.2476808447734926
H -4.841714568251117 1.8475634269333723 0.38954231906188025
H -7.834733997992867 -0.21660769562329626 -0.6573390770703281
H -7.604470336025266 -0.6039989651867476 1.2095366295480574
H -2.2604898234253383 -0.5213129091461528 2.2013299759579574
