20

C -3.969184931199585 -0.8380698610287295 0.7312333298377145
C -3.42362627925487 0.024408166473253497 -0.07819246336592839
C -2.775709267712663 0.8549106983040384 -0.8624417209537827
C -1.3587154293935866 0.7297650418329562 -0.927032085237963
C -0.6681923436005888 -0.14890468375578603 -0.22429733933490323
C 0.804413061293912 -0.2649520811031437 -0.3039812436361054
C 1.4314993113001002 -0.024469056360770465 1.0135358234926974
C 2.714446552219889 0.22528685487913547 1.170740827219817
C 3.7042982026039413 0.301569317954629 0.07220055819703627
H -4.071681585273536 -0.5200762755600209 1.742073464180354
H -4.2485829953397936 -1.7676754180683802 0.2800893004079292
H -3.4050547073998607 1.5368554310200624 -1.3662595395112986
H -0.7808467603391397 1.3883870545286996 -1.5905721506391806
H -1.2236010343938895 -0.8054569971563952 0.4345915406070414
H 1.1664592074997882 0.4496805986314332 -1.0692761228264127
H 1.0362415422864142 -1.284791278874032 -0.6663918701131398
H 3.0673683349930707 0.38665896490271645 2.184898205369237
H 4.502675547179744 1.0495178847560145 0.34751951343927395
H 4.234670011752094 -0.6865411667441625 0.01410487507041274
H 3.263123562778498 0.5632908590450708 -0.9025429022027889
