26

C 4.3900910085410025 -0.725163745505468 -0.04639738648793071
C 3.079908326700287 -0.7526151609132348 -0.22176081372763268
C 1.7732531743058935 -0.7120500173295213 -0.3524797692944349
C 1.101132327329011 0.39644213860941147 0.3102570734376741
C 0.7438236949272583 -0.047069194685488765 1.6995147540319007
C -0.346102666692784 -0.7460243652333763 1.9106936099491318
C -1.2459456225315462 -1.1095297151997157 0.7678731525396388
C -1.3154310609763848 0.05896701694693514 -0.1419899110393512
C -2.574768417679257 0.4132068529949953 -0.7817248585458234
C -3.6933850046622916 -0.2222540253780327 -0.627260635328413
C -0.20046825328648643 0.7566828049642027 -0.34599928442710776
C -0.3115175955445782 1.9192045921539207 -1.2636719873114959
H 4.722949325676658 -1.250572328679476 0.8082903799971968
H 4.914992627726831 -0.18193559545189178 -0.7845802160571147
H 1.3717067461134245 -1.4995828594354288 -0.9295827587083313
H 1.7242595571682309 1.2944752384268923 0.3014700985987629
H 1.3809114292043847 0.20579289223728517 2.5347418115081113
H -0.6426670591749309 -1.087199316774539 2.89950769042272
H -2.2207428135953924 -1.4642761675017044 1.1250514665512172
H -0.7683880502846985 -1.9550811047874401 0.20094991403558102
H -2.5600634845058376 1.2838173973297602 -1.439626762139693
H -3.8449595711364855 -1.0952560754291636 -0.007865847311166142
H -4.600427210101212 0.1095045719169676 -1.14621010572273
H -0.6169612448077871 1.6181636984203023 -2.282918913371038
H 0.6998081865023916 2.3665685390660007 -1.353918384318995
H -0.9610083492165152 2.701580697750086 -0.8323623172806832
