24

C 4.643581398031243 0.5042363026462858 1.7567480876965276
C 3.8168817755588647 -0.13549543067417538 0.9880598571708339
C 3.0383200984968175 -0.8087482082022204 0.19045932598264168
C 2.264150443779987 -1.6058867672768435 -0.48377651526666926
C 0.9441268432981683 -1.0802642783101741 -0.913724710800905
C 1.208722600931053 0.25846442492086547 -1.6001981710978757
C 0.1671238976651441 -0.8634013745823709 0.3587226098867215
C -1.1433259945650984 -0.7144082453672984 0.26769925749847123
C -2.372575280924046 -0.6686433120488432 -0.1720104436830557
C -2.9188688418521083 0.5797583437431553 -0.7374133552816078
C -4.145040146038909 0.9313225218289964 0.022454018889885966
C -4.0322760407032066 1.1909423971583215 1.3146356784663857
H 4.602295271080238 0.3624016067308594 2.8152758694297293
H 5.358890142884108 1.1693578403111218 1.308035596987806
H 2.53008620415653 -2.6137693505885844 -0.7415627417807974
H 0.4046624186119048 -1.7663573807483661 -1.5814761454587098
H 2.232976590890036 0.6315806008736956 -1.3713202419246222
H 0.4835836505655718 1.036200041288231 -1.2701978470618822
H 1.1901286562246893 0.11759667838783378 -2.708639096466312
H -2.9846399396136603 -1.5435009389886583 -0.12526099437691152
H -2.2154074468232494 1.429627276323858 -0.634681439059222
H -5.112010161567761 0.9838806552856669 -0.42658784271054906
H -4.8881460359646915 1.4547236979042077 1.9308143659582109
H -3.0732401041215516 1.1503828993844 1.813944877001898
