16

C 3.497515060109096 -0.11038493017915271 -0.6400584305653704
C 2.3449297672559286 0.49108947122345264 -0.44143535975845616
C 1.147180669479193 1.0032537242498065 -0.23484090284078007
C 0.05908830689369833 0.052486828887184145 -0.060226164257101984
C -0.997054299208719 0.5918778139919583 0.9116819300894663
C -2.0815553014421413 -0.4484878886399246 1.0345054634338438
C -2.838702760126113 -0.7493544586960468 0.011108891190891408
H 3.721248406369556 -0.302836786432047 -1.6569335018713534
H 4.041234731656226 -0.3195686099254687 0.2428988719559277
H 1.1341135463616037 2.0574641342857976 -0.22292346321271575
H 0.40394629170004304 -0.9023526085410472 0.34783459728951316
H -0.40958260346549014 -0.11341304998707094 -1.0727922152007576
H -1.4467230918960974 1.4727445505098384 0.41177111028636054
H -2.231129062345172 -0.9496454413594618 1.9838572241724288
H -3.616907157782928 -1.4968336128082598 0.10174837288031396
H -2.727602503559048 -0.2760391365796314 -0.957728592168004
