19

C 1.9059515002265648 3.6980822615571913 -2.283524091443897
C 1.6198480943823794 2.8916584220090042 -1.3018662580359088
C 0.9907775328519681 1.9514838065628328 -0.6511718573762109
C 0.6897299869879124 0.9038278795452925 0.06381703864329072
C 0.3561693030479766 -0.22605026012510893 0.6190174838658136
C -0.9524761527519641 -0.34249406209699934 1.1963734180282157
C -2.079323793320734 -0.46149004167501656 1.6825525790762672
C -3.407416436188283 -0.5799935245712414 2.2691300636472596
C 1.281615392524412 -1.3373679722173886 0.6528944782462414
C 1.2676587543318583 -2.109840827490354 -0.39673746250848513
C 1.2046665310649984 -2.854489190585456 -1.4758161882201835
H 2.4845728853768976 3.364667911977091 -3.1356742330748095
H 1.5819700275796793 4.732876828743105 -2.2983421540875972
H -4.193411170977379 -0.1319205002337104 1.631780571184035
H -3.6951148822036375 -1.6305571330937394 2.4638090384161195
H -3.372212992932611 -0.028850861598668266 3.2418784554989406
H 1.9647621913460513 -1.6099008134730146 1.4073723552934303
H 1.8699635654052351 -2.588567821155069 -2.25244568459672
H 0.48226966515878833 -3.641074103755426 -1.4330475560190918
