19

C -3.1133933038636017 1.2689919510906231 -3.4814383009639007
C -2.2343995075114065 0.9400671986402507 -2.5763971507795262
C -1.1880278983634849 0.6803737457273421 -1.8473435408093086
C 0.19076808224632574 0.7449910092506933 -1.4288248063732394
C -0.6891432174902706 -0.046633513042766854 -0.6967919687367754
C -0.8892197855130781 -0.9491984216409556 0.43173421136636586
C 0.13114559632359385 -1.2306314580699023 1.1798393477198112
C 1.450296763755422 -0.654724025712381 0.895748765631872
C 2.344344943348459 -0.6116576311647168 2.0687510294908082
C 2.213384255767613 0.2865746057681322 3.035598635914805
H -3.681181593618831 2.149056422878681 -3.3039618427015363
H -3.255058862146265 0.6817897456279167 -4.359666975104944
H 1.202740884209971 1.1026185577091385 -1.5347016146226917
H -1.85999408472696 -1.3565244191196004 0.6188559471696009
H 0.013690643139574084 -1.8887341362354158 2.013134153530738
H 1.9222300661522356 -1.0838298927231604 -0.0013400639710908246
H 3.1363402146456782 -1.3505739519718571 2.1296617406247753
H 2.880331719065612 0.29206071776872455 3.8771080929735717
H 1.4251450846032345 1.0259834952102649 2.9800343396533626
