22

C -3.964340551125185 1.604095341894754 -0.00970907424639718
C -3.0781049105464935 0.6892677095119067 0.2653663273369576
C -1.961525392399232 0.09013438963388003 0.5541066699484677
C -1.4792472796717673 -0.7901707219517393 -0.4836171823564908
C -0.7647590782384247 -1.9422640446233947 0.19321280192832485
C -0.6053723446226071 -0.11329767755562686 -1.4862705097855016
C 0.7000886396469008 -0.04986134598938605 -1.2472684198451924
C 1.8844164887631423 -0.16905020743861118 -0.7325416061054874
C 2.349127501999748 0.7819848121852339 0.28353545480081216
C 3.861969416112748 0.7419022417145035 0.3413934565728314
H -3.773382761340135 2.551382271131145 -0.443076085262807
H -4.9226594405825805 1.308059926007641 0.24576548048102423
H -1.419954398925087 0.2097449971599467 1.4576533795816404
H -2.301231195070658 -1.2701760349664444 -1.0939493332952692
H 0.007046731973042563 -2.3030182208188044 -0.4766483079337566
H -0.2762499319302887 -1.6278763548934887 1.1414464915437457
H -1.470740003665874 -2.769392797295071 0.41452147253129207
H 2.511513632622259 -0.9645963776509243 -1.0516263954037137
H 2.07659892384051 1.822464670993014 -0.0382981749254604
H 4.185513718937949 1.4596372889433487 1.1436206878283077
H 4.244748481211529 1.0355859450949065 -0.6312161199663434
H 4.196543753010667 -0.29455581108680384 0.5589125230095859
