16

C 2.8912006535116967 -2.9073374691179175 0.4422727245060056
C 2.217805712968998 -1.82667056008915 0.7195064785034073
C 1.378861910334641 -0.8525577466963947 0.9277801675332826
C 0.6792252988065811 0.1567060074590891 1.3684563215448766
C 0.457741701266514 1.3036830853172774 0.45606694418557603
C -0.7938702054855599 1.0765004748362517 -0.25849488298839424
C -1.8333998465087 0.8766756108879096 -0.8498167330410895
C -3.107052007092859 0.6396354959651221 -1.5455640607294798
H 2.633264842638968 -3.5425989697200757 -0.39127848834438417
H 3.716150502619352 -3.1581590952262886 1.0637675353887819
H 0.2839607652941045 0.13198053931970172 2.3736894513363445
H 0.40687867166439157 2.2131141351739507 1.0929238858481827
H 1.3321574838262216 1.3900024302047005 -0.1961797163006268
H -2.920289852629564 0.24147237291258308 -2.5771211660924376
H -3.656581225800855 1.5789699463955713 -1.5932385064241612
H -3.686054405386764 -0.18209589325569522 -1.0327699549305371
