22

C 2.9261809520561055 2.1380552604299745 -0.9914662029396519
C 2.2866294540523935 1.0575874780689054 -1.3764984591531109
C 1.6607011313702122 -0.05271857646283883 -1.6987514169306424
C 1.3264329143270903 -0.9118544254305253 -0.6224449982316264
C 2.4049701183287056 -1.4417359077777003 0.1732942623235976
C 0.14846087820256246 -1.2864622485891932 -0.2579752897065158
C -1.1066719665781148 -1.598808740339996 -0.20585992255966068
C -1.866624210151471 -0.7465889983420289 0.6206661055974678
C -2.6694992885964117 0.20514814847546192 0.2617846118325745
C -3.4390060079127 1.0689952006056662 1.076902644950654
C -3.413756697024951 0.9849132278633101 2.3862999279474146
H 3.986383112565731 2.0484359611960143 -0.9589374185504808
H 2.3002270575445576 2.9599874852034094 -0.7619212271860497
H 1.488244011500505 -0.15538443031399787 -2.7404315888477444
H 2.932004673785708 -2.3094749660499563 -0.328627165181225
H 3.1427949390851544 -0.6266284654695832 0.3424217623457204
H 2.0942881689782236 -1.775158314157733 1.205364033126002
H -1.5361269139328004 -2.3995269991047588 -0.7198034349255862
H -1.7597234067685112 -0.9167048854434893 1.7094867720712779
H -4.07481267887836 1.8301986775923327 0.6133571550865597
H -4.011044393243427 1.656727658863543 2.9877130546776804
H -2.820051848711306 0.27099785918309965 2.8937410165443493
