16

C 2.659113254599341 -0.248481989224314 0.7652159044367355
C 1.649541262558644 -0.571156915335583 0.011223675347553457
C 0.5899313265278129 -0.8224838614112187 -0.724579366916184
C -0.17627100777010746 0.3433754641823677 -1.160566646932781
C -0.9084912026083316 0.8902359185964719 0.06608445924122953
C -1.8297887504176433 -0.1765876483098779 0.6178404829431259
H 3.5709240271655833 -0.07186247152127598 0.23552199258341674
H 2.4692928391890665 -0.19471668339227788 1.8166850267190455
H 0.42448617564243296 -1.849129272758283 -0.9098805718849634
H -0.9141953401574359 0.006724213162358343 -1.9174512433290851
H 0.427476685565052 1.1276812557921312 -1.636659134013234
H -0.20671255738968525 1.2024497650428247 0.8468745401916591
H -1.5509662994768245 1.7237015456544613 -0.2879708472402665
H -1.2328511107683295 -0.9448839489741836 1.1896900262187422
H -2.385696523861962 -0.6989125956618485 -0.19681298805093633
H -2.5857927787976034 0.2840472241582643 1.2847846906859561
