34

C 3.657186983927299 -1.8703901408676515 -3.7954732198623695
C 2.9815524235738646 -0.9139200830584964 -3.1924050557558377
C 2.1629527403047613 0.018319035491972564 -2.837002973730486
C 1.595888728498463 1.1455562976797997 -2.465282968768834
C 0.9099539277542283 1.2115932600835857 -1.1843448407617476
C 1.4251705561289376 0.7235126039902019 -0.07002653748035612
C 0.7176887865541929 0.8178260265116302 1.2086785102383466
C 1.3506496487168045 0.6321533502534922 2.322414426735714
C 2.790256200517532 0.3171557422548262 2.3255843240802525
C -0.7173221248599693 1.1372148275466734 1.2123926638050886
C -1.542946991391518 -0.04463152368409727 1.5726361189003668
C -1.2976144754319594 -0.5351664663142335 2.743134998770274
C -1.1583870442337756 -1.1689987940626223 3.901174443029383
C -2.542256412669734 -0.683370465777785 0.7899424635030713
C -3.650609546426556 -0.056871748725881514 0.45220719312077456
C -4.712408492568662 -0.6729554214819895 -0.352822663976164
C -1.1917613371112539 1.6974426786932075 -0.08211800926143063
C -0.45153104218093487 1.7219056788348552 -1.1631700812925077
H 4.69002471162523 -1.6510457141300188 -4.021868047204098
H 3.225124556771732 -2.8205921196651125 -4.060567665760957
H 1.6444863767453042 2.015131612461858 -3.111835803576232
H 2.3961421869096102 0.2366697585224946 -0.10911562405678185
H 0.8461861886289493 0.7148840351133539 3.2607615503749914
H 3.388187243809587 1.1192965487805704 1.8176340788279977
H 2.987819068825188 -0.5895514709753582 1.6807243529017988
H 3.248725945551443 0.14160597979726142 3.2946207378673824
H -0.25303613423622506 -1.68155978920417 3.990000429671997
H -1.9895503502307352 -1.0367690547156172 4.524408164434457
H -2.4097702389365745 -1.699838175378213 0.46072625477039647
H -5.5607143327287725 0.06101245260663606 -0.4379398185975411
H -4.333518425881504 -0.9797137962535438 -1.3458256793603356
H -5.118540450603203 -1.5422306058002326 0.20556425547404583
H -2.1940500372153577 2.0912927532108654 -0.08702474582575649
H -0.8939788359426964 2.1450327298589382 -2.0853704517531817
