16

C 3.2346773361811576 0.14632289977408033 0.31815799979476095
C 2.1639725039583406 -0.5856422780240823 0.28627883094326334
C 0.9865644076742518 -1.1743334757621198 0.14473342498882544
C -0.08737713931974408 -0.34319029088200637 -0.45057528049770934
C -1.4713328161920312 -0.9038651792157496 -0.1454790418524435
C -2.2744125652366347 0.37298453015276833 -0.14662981047403995
C -1.372302290856471 1.3483589845218813 0.5031440888024302
C -0.13215864945682554 0.9433025463227543 0.33065055573637897
H 3.419939506057439 0.7559930614424697 1.1745702027731342
H 3.9038448756522377 0.12468600499882315 -0.5120147387901005
H 0.05511255901370525 -0.11315733497564387 -1.5050023329298503
H -1.7939660110452293 -1.614472373259656 -0.9306305219847069
H -2.4516618889197406 0.6698485670836759 -1.206440429841464
H -3.228978273102813 0.26785542866107 0.41587425470885914
H -1.7007296050122962 2.2623014305114544 1.041221238698677
H 0.7488080506045844 1.433580735104138 0.6821415599239175
