27

C 3.9433932247250363 -0.03590571854027884 1.354702981831272
C 3.610073139693607 -1.313249381042096 1.2511564647595703
C 3.297636383053022 -2.5400219870923793 0.9265123159858815
C 2.0264521461705356 -2.7710648843733985 0.25890191300082444
C 1.3872097167156487 -1.512680057052959 -0.10400851863862969
C 0.8357573199769358 -0.45201885359255733 -0.4137928992112538
C 0.18236887440193555 0.7516829859601389 -0.7663666514915419
C -0.3435099248614656 1.4905484896172447 0.16495764613707004
C -1.1847725089880627 2.1084954005742147 0.9881469763719793
C -2.533587436831091 1.5623910192943862 1.0951871929269494
C -3.274055268328251 1.5259835304078397 0.00559377701168499
C -4.665595913328175 0.9787161997363868 0.04701159814654599
C 0.09186831197856478 1.1757916327927347 -2.144533871284565
C 0.6266310528542737 0.4338294178355638 -3.0943388954588884
H 3.4831091826408755 0.43031370364171234 2.189644360117929
H 4.599962252733226 0.323890959432475 0.6156624568578541
H 4.04221077354929 -3.241232020484754 1.197995015866991
H 1.313786785622956 -3.327632407170461 0.9295171543680573
H 2.169197809809354 -3.4311908900708725 -0.6224078481632367
H -2.9427414276061916 1.19589639907511 2.0104632560405413
H -2.921751113617048 1.8871707742875063 -0.9604493732481094
H -5.4034000824257316 1.7215287613014547 0.3482591818687984
H -4.702533286993137 0.11211724982246063 0.7459472797563249
H -4.94105844967716 0.6036464156553035 -0.9469748935209509
H -0.40471106827327974 2.0939950414125446 -2.4130422389414883
H 1.1238425231474667 -0.4785371976703569 -2.833447129416427
H 0.5842169838480796 0.7075354162399431 -4.134806082403993
