32

C -5.424276538830102 -2.0830633612731058 0.16920106281441655
C -4.919089473300654 -1.5822522563300188 -0.924425587789912
C -4.075494238639151 -1.0794951784867413 -1.7987421578409368
C -2.6074154739917583 -1.0240924048397133 -1.4911263299752175
C -2.3480307159347484 -0.8710029604424437 -0.05799076185872731
C -1.6953775786798508 0.14369900048000991 0.4733411477821977
C -1.5141611396260075 0.14862607896882604 1.9729539678100336
C -1.1109724613583167 1.2935600795721582 -0.22980435932793977
C 0.3638649283797823 1.323733241839804 0.029932887029077745
C 1.246440242488059 1.2450071776546117 -0.9262980827940083
C 2.673676952916403 1.2753123911254314 -0.6622288488712925
C 3.5419662924361828 1.1936470091183504 -1.651381718920729
C 3.1553714913978705 1.396486558162349 0.7011888078584466
C 4.1543225351924615 0.7110440729176343 1.141284232786019
C 5.170111867978407 0.08348876360221409 1.6032539951980154
C 6.209745646537145 -0.6735669905716021 1.7754513101160472
H -5.826859958481701 -1.3928213356019097 0.8876055878899096
H -5.463291214704952 -3.131516144298239 0.4028803721118542
H -2.205616928366855 -0.20885502438166662 -2.107140219062866
H -2.178667551704955 -1.965587538133432 -1.8902071963387128
H -2.7235405949413893 -1.6554355550761433 0.6161437337757293
H -2.099923359476171 -0.6612771402211827 2.447481656793354
H -0.4054159833535562 -0.010555998362945589 2.1206576534085695
H -1.7541030839574256 1.1562724493969652 2.3640896004732808
H -1.228808022302823 1.3074073830689938 -1.3219531288489186
H -1.557765533517715 2.246883465049203 0.1802211531813207
H 0.6930429012096686 1.4144380634204867 1.052430244883355
H 0.85707766201548 1.153575813852533 -1.9536212767864936
H 4.608603773070224 1.2113149355455641 -1.5112195225281033
H 3.18721320196249 1.1026748561149615 -2.675310388331192
H 7.2299967604913284 -0.3578068640179492 1.6380041937710386
H 6.047375595092725 -1.7098425878527528 2.082730388523408
