10

C 2.812850481925649 -0.25254728473493293 0.11420011127357252
C 1.5332245784248697 -0.3974898398350147 -0.08027492800318622
C 0.25488571906004015 -0.24251720960140544 -0.26611911226305834
C -1.0261126042156394 0.037956369478694636 -0.14934725936168844
C -2.159059755421568 0.9372810446809496 -0.20413493773090322
C -2.3474270936377293 -0.4542368181634994 0.16077095937224872
H 3.429852925694249 -0.08072030913527425 -0.736989147402208
H 3.2860183729614714 -0.29595889460688607 1.0852609482100846
H -2.651295715279788 1.855841563093815 -0.35605582904696415
H -3.1329369095115607 -1.1076086211764506 0.4326891949521242
