25

C -3.865220301541066 2.27905584153056 1.6880279065474109
C -3.679824110414198 1.0792258629480986 1.2224955653337812
C -3.327690507153193 -0.11860621540587399 0.8673505285047868
C -3.37634078659406 -1.326946510213771 0.37891185603621436
C -3.1598628230312245 -1.5998678153242358 -1.0171744328960952
C -2.0203023029624867 -1.5146373241079685 -1.6455247014526857
C -0.7342592668743408 -1.1186895524754128 -1.0309308930745456
C 0.42401055916251845 -1.744758967726856 -1.7579199486815775
C 1.6477594237593112 -1.3597307266859409 -1.4976265754653733
C 1.8980685642433013 -0.3346086800531006 -0.5143836388168127
C 3.130879003567717 0.07242012418592962 -0.23336974712409045
C 3.319797759810835 1.1083311656162012 0.7664132209441962
C 4.5361156764342185 1.5064378405532124 1.0402513876290134
H -3.6857287785285946 3.1110778959868943 1.0246087371348087
H -4.186139511760136 2.5028574657530314 2.691568598270309
H -3.5871687090064 -2.188128960891752 1.0265360529116465
H -2.0102057883603264 -1.752397666103473 -2.704333839428533
H -0.6242893744988661 -0.010745305159200837 -1.1556704217508411
H -0.7223826584477091 -1.3929332050509613 0.04317412046528537
H 2.466369413879193 -1.8110911213956193 -2.0201697732804464
H 1.055019133979883 0.10244642999328706 -0.003490220806274342
H 3.975175197700538 -0.37031701594051675 -0.749954703102865
H 2.4577218688487426 1.5426182313462284 1.2763990755393004
H 4.6997951494207095 2.2698872219462842 1.774718580858883
H 5.368703168365372 1.0691009866748078 0.5300932657041878
