25

C 1.3541566938257341 3.699243173966793 -2.2946788360716517
C 0.29704672540311056 3.1346662148682767 -1.7573857151708805
C -0.7048285217972551 2.4936039206419522 -1.2185811940808653
C -0.4848191564310784 1.07924861576383 -0.9061514237599815
C 0.11426998835034187 0.7250788496643931 0.44982435181499997
C 0.7423708310144002 -0.620885714300075 0.6324563555899948
C -0.3814768936545635 -1.606745344683297 0.6781906690798829
C -0.309659760949421 -2.848566891342585 1.1004117489561855
C 0.978403361900418 -3.387437826515566 1.5917323941170487
C -1.6114044932779612 -0.9502944164168382 0.1629003264477858
C -1.3492750502158792 0.5391645556255918 0.2199751340661896
H 1.3936922380515224 3.646133002358752 -3.3502955969565016
H 2.024904302143954 4.130708863501613 -1.5998066358790133
H -1.5704420932413752 3.0775529281851637 -1.0682181135258535
H -0.20517908032604829 0.37281168278929855 -1.7223092539545144
H 0.5054032966408205 1.600162732013174 0.9971201949268119
H 1.3651149405463348 -0.6295219780448132 1.5252241128766948
H 1.355546075608307 -0.8624115305626029 -0.2790566603482589
H -1.177966918352203 -3.4793311608268 1.093082518816398
H 1.8165126878324322 -2.681680592977134 1.3289835741600287
H 0.9273913668796088 -3.541766731914491 2.6885443176020187
H 1.2303834431590772 -4.357997926062496 1.1345787638825933
H -1.7265965867440427 -1.2687081454560616 -0.8923621165631407
H -2.4955090640808386 -1.1456403336469585 0.7871295651376595
H -2.0880383335632207 1.2033883933324583 0.6986915339995
