16

C 2.507605149635201 0.37755731336456144 -0.49330527510169264
C 1.55665860776157 0.5731364998706202 0.37486636873369544
C 0.4881334859192613 0.3943723208283171 1.114971147794168
C -0.7422097043768048 -0.199914081973518 0.6183879963525916
C -1.5614818889124564 0.8449512370227025 -0.13780019056182513
C -0.49837526534087395 -1.329159711516583 -0.3817270016829963
H 2.614680201533437 1.1810136873478045 -1.1676715203664694
H 3.1182260427281165 -0.4851117453085639 -0.5400684502511454
H 0.6186590108463309 0.7226517171548699 2.093277923252539
H -1.340072383831534 -0.6544910979785286 1.4402732729429086
H -1.4419117457234316 0.7357711963030911 -1.2341316258193207
H -2.639478892935724 0.7055827275792017 0.08397298871307428
H -1.2005478707727082 1.8664694251515421 0.11689795233891963
H -1.5152077411605542 -1.7764900002127664 -0.5675681224218834
H -0.17609470694663648 -0.8951124969934804 -1.353325281792069
H 0.21141770157661832 -2.0612269906392213 0.03294981786932927
