20

C 4.414549272124241 0.9337097386051869 0.1788567979108939
C 3.3856220447941703 0.7282327072054959 -0.5952569035219589
C 2.3124971346521823 0.46825747715448646 -1.3031680141446824
C 1.3833448446799255 -0.46252553179215344 -0.7500083358042989
C 0.11413691636273152 -0.42070693930357145 -1.1520887828428208
C -0.9194089031497944 -1.3391753126084072 -0.6398089259234295
C -0.8681031171651455 -1.558942311271877 0.8328081429465493
C -1.920906066145058 -0.8875344376311632 0.3235560366540492
C -3.2004634588209444 -0.1887498144842942 0.6120335190894949
C -3.178983746518908 1.2323568018057938 0.06624201461007094
H 4.315408839509155 1.7174770232192036 0.8787402768371219
H 5.242008038522709 0.27080253805184457 0.004822779549773096
H 2.2610829473911376 0.9895597280716821 -2.2191342627868345
H 1.642022046394433 -1.1952604538205887 -0.029610669153214593
H -1.0598408280075984 -2.2940866360903587 -1.2108460805101335
H -0.2877778026513102 -1.9964647469799104 1.6353756272057234
H -4.074504395453183 -0.6983968995040358 0.18497916903734998
H -2.6759000662318546 1.9000384751981914 0.7997495520941168
H -4.223833464476766 1.562316558370119 -0.02474951520648047
H -2.660950235810547 1.2390920358054098 -0.9230842604994726
