22

C 4.828852622084172 -0.014031982268918192 0.13334417405048055
C 3.6865702198153576 0.6001391152545547 -0.0583350488633008
C 2.4976626772604407 1.1379684327649597 -0.19976826184237292
C 1.3783289976490212 0.4287287718897579 0.40686169751434553
C 0.07228047566479048 0.7773319762513329 -0.1895226712329301
C -0.8801732027038075 -0.06802760240175502 -0.48700832148679585
C -0.8486346225401357 -1.5251601365609802 -0.29153092484743004
C -2.1362345820329693 0.50505057329491 -1.0903146723973203
C -3.2827775945612814 -0.1504845632521743 -0.41608877804593775
C -4.066642177491316 0.4648005343721266 0.4430910075924836
H 5.085294000865106 -0.7136019329799644 -0.6130981320788096
H 5.339883500741327 0.27560673324893264 1.0141321925559967
H 2.497741015481314 2.042575879113965 -0.7502900270678581
H 1.5708336996767551 -0.651185427029238 0.4391457244205841
H 1.3243943869892696 0.7556792942905594 1.4875437388338877
H -1.4402490220184487 -1.8013794561816312 0.6102183483315377
H -1.308568876898406 -1.989880935836408 -1.20895877766136
H 0.1405456687930541 -1.9634886274212224 -0.1876893391145176
H -2.1901814163555833 1.5885300806496603 -0.9756410615848902
H -3.482821545948986 -1.191831223739915 -0.6455713336252205
H -4.888692640908106 -0.02105351606623797 0.9205638953594886
H -3.8974115835614818 1.5137140126078332 0.7001333172009919
