20

C -1.4667640321319348 2.8076709576992824 -0.034447341043903824
C -1.0207457878083435 1.6291803212505775 0.26053759707023216
C -0.5383462995197404 0.509610867702932 0.6971678592308905
C -1.42004514197813 -0.5156938402709228 1.1155046476282993
C -2.1181066978713643 -1.2779172451559433 -0.015942336113351913
C 0.9010852214016157 0.3306634314424555 0.7496510483203263
C 1.438867822452718 -0.8182625779516458 -0.0313234690942421
C 2.9592499080166417 -0.8252196658342035 0.1589958782211743
H -1.6138378999302063 3.5475915338571653 0.6839742126714686
H -1.675091542072813 2.985851198922052 -1.0385639985043462
H -2.2155241094439164 -0.2610892852450832 1.8387000345179731
H -2.8217153427048314 -1.9758308757698737 0.48685867924539367
H -2.6988722416702844 -0.5763223035518444 -0.632468343006662
H -1.406101909555554 -1.897593538058398 -0.5898381365506186
H 1.5069965760395192 1.232528632422837 0.7397536851093143
H 1.2693633615272089 -0.6785168189200241 -1.1065083830783091
H 1.0456232545463067 -1.7824573173244316 0.3531454699676665
H 3.4511104097661573 -1.4688234073574118 -0.5698039408452442
H 3.1393516866172573 -1.182392183178679 1.17346837541018
H 3.2835027643198873 0.21702211532112556 -0.024455531055678454
