44

C -10.88132843652231 -0.4680385970721215 -0.9096588149699065
C -9.839639294443199 0.1414791449251298 -1.45206281543642
C -8.670213588699577 0.6592190747333516 -1.720729682910238
C -7.614246027440034 1.493225044027695 -1.5927343594962815
C -6.873035867993706 1.5439498775846454 -0.3770713312442727
C -5.546685621521796 1.4729991727787455 -0.22738991385164106
C -4.720329690295107 1.3211415837506941 -1.4113001893680712
C -3.419850770267912 1.2614063526577355 -1.3969012844716224
C -2.65236508106351 1.3368733608101733 -0.15003302423467266
C -1.3366502117314147 1.2730450977943992 -0.1470228910168842
C -0.6009279513264855 1.3504814631926734 1.0546208301471252
C 0.6318081602422139 0.8642289574314485 0.9910707433405243
C 1.700518088831472 0.1191976043211348 0.8696968092123737
C 1.7893393770308217 -1.0057268761859042 1.7488613553361223
C 2.9934069236080574 -1.4515970023835976 2.07943732863412
C 4.180254832681117 -0.7887947155174624 1.540012681186007
C 5.30761827551575 -0.6145453626718458 2.44009263539013
C 6.352972834534825 -1.2273836031990224 1.8816673511138808
C 5.95859135899017 -1.8226819964764325 0.6060761212886379
C 6.827171271575369 -2.5990421988079455 -0.3190922028732688
C 7.326302490708302 -1.7114569101405714 -1.3693055353826442
C 7.8653403558182085 -0.5853545192329561 -0.9840811350229254
C 8.372922340049312 0.5258369009642089 -0.5248177806970301
C 4.683442249187904 -1.5802704995067893 0.3890620814357725
H -11.146713427272822 -1.497537981775622 -1.1636125325141828
H -11.492296043667459 0.036181652073963025 -0.18442525339382013
H -7.366442918274835 2.1390379381632925 -2.445068294030235
H -7.453213166338265 1.6515152063735872 0.5688303084174279
H -5.141117680196156 1.519064890263407 0.7639520213563438
H -5.243980109950768 1.2518439968501183 -2.39854150262058
H -2.914235768687334 1.164500402412698 -2.3641493252798935
H -3.168727796181039 1.437984478895435 0.7763403125461744
H -0.8749760568488388 1.1552679061589977 -1.1282036721221593
H -0.8320543320753907 1.726772644200473 2.0118282846630304
H 2.3731906600884525 0.44840505668992203 0.12315058733469725
H 0.9210693686583259 -1.5191443274729857 2.1528573124262276
H 3.054199013933451 -2.293276561512001 2.754319588026367
H 5.2827150536304925 -0.08779387494814933 3.3828365775937708
H 7.331877810163549 -1.2578174140943021 2.315891670427389
H 6.2936462609336505 -3.456916183197764 -0.7554515881830823
H 7.311107761773874 -1.8526624306659334 -2.4259526315444986
H 7.689424469987361 1.3320953133190017 -0.400726095389588
H 9.414519227865696 0.4918264941540421 -0.34111759815137693
H 4.127591655449462 -1.8975385826222788 -0.47441188553771374
