27

C 5.227833147117998 1.7220726685030612 0.7856405911505367
C 5.007067154733456 0.4246055351902253 0.741764003711896
C 4.7112110057994645 -0.8451293170835749 0.6703994792430661
C 3.385669261886334 -1.1621474162373093 0.19525802318214788
C 2.2879210292685817 -0.9439365039302254 0.8847901107376963
C 0.9851499008848679 -1.2724339952009063 0.37973205591840914
C 0.6883880373444166 -1.809669100206152 -0.7768772671764758
C -0.7194094918981965 -2.0657243294186856 -1.0998198045513639
C -1.590031606403268 -1.0896752296652192 -0.9224464649520928
C -2.1699270123109824 0.057787219020675226 -0.6473332409880941
C -2.612026741014344 0.26710698587355075 0.7493787670000285
C -4.14396221003938 0.25612653029952964 0.7210856665726281
C -4.554467292927711 1.3908145115947994 -0.19465381836471524
H 4.9691733256415915 2.1797782509356725 1.7034109294224797
H 5.63279822863045 2.1271117311312966 -0.10383062949074857
H 5.481772927092913 -1.4982347907096625 0.9708696513682195
H 3.3096959349864727 -1.6036917927408707 -0.78568662334113
H 2.4248064436252497 -0.4948892586336455 1.8715992162187693
H 1.4668631398574234 -2.0523322037180334 -1.4638717437093227
H -2.3042875630720476 0.7879101286214084 -1.3969035174775328
H -2.3419691654409895 1.3002328689742704 1.1175886516215245
H -2.2134940090053186 -0.47619785457067504 1.4469787671958214
H -4.568577544045854 0.45317669642386377 1.7226152704271191
H -4.458234174648107 -0.7088978842829531 0.29112871779955596
H -4.3185254610277415 1.1361070799420037 -1.2399154146739095
H -3.9548060498732647 2.310411625154987 0.04580934516389306
H -5.628631215161884 1.6097178447325597 -0.033454195686025055
