17

C 3.9579054077645623 0.08808416972603826 0.7231577169617919
C 2.9600663238009965 0.37507805453208853 -0.08421634663368065
C 1.9122014136146435 0.6652169091927199 -0.8084418650821994
C 0.6539348789955595 0.8629398035142097 -0.09272593838104087
C 0.060389909822941186 -0.38744039822062926 0.35455299240513233
C -1.2147728169907315 -0.3455031794724299 0.6815348167842824
C -2.5138245282038385 -0.20867228935978396 0.8829651046072341
C -3.357036439735578 -0.41481185315356445 -0.28281058895635164
H 4.488533491734975 0.9283652432023758 1.0820732195612583
H 4.092567865873901 -0.9456790651899989 0.9037775930921331
H 2.102738470635021 0.7237635333532535 -1.847742214434453
H -0.05025822977973356 1.508921815958153 -0.6493878770715457
H 0.4854086062933767 -1.3460377846914486 0.46354012608291295
H -2.749178880469792 0.03581397724821716 1.8796858956010467
H -3.266382372490177 0.3670047565354898 -1.0671100256194301
H -4.452894186866812 -0.4917764492872282 -0.02222375823338154
H -3.1093989139990184 -1.4152672438872544 -0.7188728642338451
