21

C 3.8923030922612845 0.8423255502031965 0.2382369904099853
C 3.7054134746353973 -0.46132792072672885 0.08900262620439235
C 3.0564925716910336 -1.5889932021331445 -0.01771678716631561
C 1.6252878257168628 -1.70342553892688 -0.23609115046955212
C 0.9443567045274297 -0.7490795172630287 -0.8342011702562433
C -0.5154153861093447 -0.8357274853229882 -1.07165793429524
C -1.222174280903625 -1.5651015428071504 0.00511980194966709
C -2.091041077591378 -0.7326465377992619 0.5475961990765562
C -2.027545897644282 0.5582727790702215 -0.10280990098463884
C -2.8901900863712915 1.7227005768374015 0.2831311742742306
C -1.112568381708292 0.5011628858139707 -1.0443618245208255
H 4.087423226483367 1.4155801171237685 -0.6434649244732881
H 3.844114004164913 1.2881819279622713 1.2099815394857267
H 1.1221248502042755 -2.604934363863905 0.109090080280013
H 1.472739008786984 0.1296468183230939 -1.163370145317613
H -1.0236525643649446 -2.597951360014227 0.2619085550037065
H -2.7420629038126374 -1.031674723098244 1.370975679289532
H -2.5493275198745713 2.0197212012839514 1.3020279310506155
H -3.9611504101568142 1.4449893553496864 0.27165542476840787
H -2.7263780972991705 2.5761694870122596 -0.4193749435782196
H -0.8887481526352684 1.372111492975708 -1.67451374927687
