26

C 6.865573835986655 -0.34817621441196694 -0.5875070893715276
C 5.567384311088428 -0.13820350556015984 -0.6024280751925304
C 4.294949896015571 0.13927064863125754 -0.554281094159682
C 3.8955411771812907 1.1906807789262668 0.3286091187505225
C 2.6038549136908675 1.4357645817560527 0.5050614727597118
C 1.3033193987766285 1.4320242140196477 0.43730090846105935
C 0.5012041611845766 0.4843588680144038 1.183138039815449
C -0.4844595369422873 -0.15984112091997071 0.5988201902031749
C -0.765547963667313 0.08716851957714435 -0.8102020231516734
C -1.7568255560810324 -0.5583739741601312 -1.404477541096187
C -2.5579861846328793 -1.4956569262097434 -0.6861653908624106
C -3.453998089598721 -0.9815390797902316 0.13564648611858016
C -4.386535614045714 -0.366430627205588 0.8396892803570492
C -5.631805010943929 -0.08745721726834706 0.14107621889751626
H 7.190939415087008 -1.0570605348102968 0.12716958982267212
H 7.414543434034305 0.2197942332195333 -1.291426325776444
H 3.6977113526041356 -0.469079283677144 -1.1964202905007335
H 0.8288397171786643 2.150393028036595 -0.1931817083985142
H 0.6869681195534904 0.27605106256237827 2.244361507762711
H -1.066467430215428 -0.8634349423905509 1.186170136178251
H -0.16524929049254786 0.786878331439091 -1.3410826388342252
H -2.5651421539063834 -2.5497969474307753 -0.693862331717491
H -4.084753252565257 -0.1615264601250505 1.8283059833168958
H -6.326870366907688 0.5314038695161212 0.7625886290555273
H -5.49121844259101 0.4951290042329478 -0.8006438584895693
H -6.11397083979168 -1.0392894169404305 -0.15625919394808008
