32

C 4.230940287362659 2.7630600232318523 -0.17635798297262573
C 3.7293860728409944 1.6599725137424102 0.3364797463218445
C 3.1973599646458393 0.5313688483321488 0.7578736103122429
C 2.4832574114396837 -0.2590187073408411 -0.23305151006357508
C 2.741727652869392 -1.6983771757116874 0.005317836374710438
C 2.061580721356974 -2.712215355004316 0.42074843080412194
C 1.0311436145053252 -3.1528173852607333 -0.233694794036395
C 0.10673075629260861 -2.554952836478627 -1.1946235377255217
C -0.36077762057777524 -1.3587768251145993 -1.4878506466661146
C -0.1710998569811359 0.0037928106410780576 -0.9703407782906909
C -1.268407227588728 0.4219118766547491 -0.0608360140781673
C -2.664550782726858 0.5543832168202094 -0.4691740913969669
C -3.6100321018090358 0.9297214226552185 0.3735809747450612
C -5.02406270062901 1.0699505793753743 -0.016250362787136735
C -0.8146087725106379 0.6568432636637309 1.1612465097268219
C 0.6188494604808787 0.401906989770984 1.1153118266527136
C 1.012121724943309 0.02857756461908456 -0.0864447030863329
H 5.210878145895097 2.661826586617529 -0.5619718145155168
H 3.581213575034569 3.5965718831869626 -0.13098754756610492
H 3.3609648566361745 0.34070183490582623 1.7836590043947134
H 3.7498586208227165 -1.9608148877354692 -0.22711173817403685
H 0.8043844834629944 -4.210752830223138 -0.015989031102947367
H -0.3019331410535169 -3.3513024477984374 -1.8467438416537623
H -1.0674637677523486 -1.4272991193996314 -2.3358570368225893
H -0.057540901414848244 0.7191834377027353 -1.8218626963262352
H -2.9662689921149745 0.3460768917218967 -1.485906814172639
H -3.325663195269629 1.140740444638116 1.389412398761209
H -5.148534314708979 0.7468944636186243 -1.071148511713459
H -5.345486857169357 2.1308731157519034 0.039519701743036234
H -5.719602601177458 0.5040489167823754 0.6427375568567445
H -1.3873955397802693 0.9760708703851859 2.031178577597566
H 1.3130310246771908 0.5018500152519608 1.9686939722976615
