29

C 4.9623812775188965 -1.829210879610254 -1.9612264535385693
C 4.299046070041111 -0.6993503800771169 -2.071301681356624
C 3.586776626050489 0.39662930415244896 -2.1102219302580285
C 2.5211967225700906 0.5147181602100295 -1.1111347779345955
C 1.8728438864040058 -0.7881368000575649 -0.8337831066260607
C 0.6585316613330086 -0.9430068712246782 -0.3768247467812008
C -0.2403945755300813 0.11069295166692866 -0.07037786352375124
C 0.22078129481499345 1.3114975615617412 -0.2759621493700655
C 0.6159608645253577 2.5594816580687203 -0.4713570468631016
C -1.5798276525944261 -0.011106088989299608 0.4326113580682459
C -2.320259774669328 1.0456450715578733 0.6805505213814294
C -3.6669916892798087 0.8713718130992302 1.1876177287374738
C -4.3951563286963 1.9478150466422643 1.4303299565443615
C -2.106239350557155 -1.325532300689059 0.6644079991645455
C -2.28089008511632 -1.6750585018068165 1.9185481719231139
C -2.4322237115206735 -1.9230028181033858 3.2072409425226347
H 5.80110206552346 -1.7879451129461075 -1.3182852096300242
H 4.565519229702902 -2.6308810299104355 -2.5323261896608824
H 3.8690081957918676 1.0745356325521702 -2.8675660668214604
H 2.976203560991653 0.9072250155665297 -0.15980447828268218
H 2.462330258926194 -1.6785387774832685 -1.0292218943147535
H 0.4005031132467838 2.9225257094892223 -1.4343569645056555
H 1.081361992954259 2.98063750633965 0.3721713575379966
H -4.11472526505323 -0.09231425678544644 1.380545597574109
H -4.012879942113389 2.9427729613709017 1.2608402592336405
H -5.404016817342475 1.884582225964709 1.8085370877334404
H -2.382703042395963 -2.075881567923151 -0.02810968350643758
H -1.5832238634347953 -2.3601744057756497 3.6596051783828325
H -3.3740147219419514 -1.6499908269215182 3.599277282032883
