23

C 5.2334554431243925 1.7325204707337367 -0.5103159457081425
C 4.600952327540002 0.6138465804193761 -0.5985723165229134
C 3.9529143882040843 -0.5167858576409446 -0.6076577763979759
C 3.430489435391933 -1.6987554132136813 -0.614871882409293
C 2.1329053505883064 -1.928999984092395 -0.014444856392355982
C 1.123349420516461 -1.120061716968686 -0.21272589121860638
C -0.1663386020497963 -1.3863625614721933 0.40926232948466745
C -1.2029353217330403 -0.5793707404402457 0.22154873202511108
C -2.471010744902677 -0.8859161937416238 0.863230970932443
C -3.523271978456152 -0.14226732966618438 0.7235324640396972
C -3.522137888462276 1.06224513868175 -0.08811516621584344
C -4.6172187000681095 1.8008679262087026 -0.20974725468269242
H 6.166726392095895 1.7519921803743004 0.03647877136005308
H 4.901569395263584 2.6499219179762434 -0.9408250576908791
H 3.952597246437393 -2.5160604998587286 -1.0644382237388708
H 1.2275928987838578 -0.24035087873971206 -0.8409317539360305
H -0.2993088164538342 -2.2470422851509446 1.03454720714993
H -1.14207731636348 0.3009188365550761 -0.3921862777661425
H -2.552902856277084 -1.7868585424500656 1.4981228487703726
H -4.448607520768677 -0.4543967256477421 1.251363980897853
H -2.670492983906584 1.421630372132406 -0.6224313099811091
H -5.5009382414682335 1.4898764012495964 0.3030133112413582
H -4.605311327052612 2.679408904755417 -0.8055418585869625
