30

C 3.998046509696973 1.0376910607788237 1.5758161326441091
C 3.232700223283888 0.9439726284948796 0.4996697049825867
C 2.4200026629621587 0.8370014353487096 -0.5165684964342435
C 1.0403180994141021 0.54804269280027 -0.19037067117861176
C 0.48915373485088265 -0.5382601262370279 -0.6829329214487135
C 1.336088736467386 -1.4139352013955357 -1.558745200950537
C -0.9107129325455522 -0.9630937017385292 -0.4363570889176597
C -0.8360912625605892 -2.4067569654764527 0.07085313948008543
C -1.5803476545972657 -0.11172787244650562 0.6175015069419603
C -3.0415024603302503 -0.2199195699448025 0.43788713274706464
C -3.767645060105605 0.8609593019394015 0.2552931049220432
C -1.1758985368526471 1.3204534143783442 0.5435273416541156
C 0.3170790892966399 1.514803400218404 0.6981947130843965
H 4.431468579359653 0.12775534995771906 1.8757836376789276
H 4.06032555222845 2.0102038535886524 1.9744853714171249
H 2.8624432472222305 0.9738260082422615 -1.4649928676956365
H 1.6768036020606827 -2.25899907616029 -0.9271536424224702
H 0.6845931686181684 -1.7846267316612292 -2.3743810152224083
H 2.159807918678771 -0.8555772194480342 -2.0321750640317293
H -1.8630390641355383 -2.7333786300980503 0.25164911998227657
H -0.28480743768210376 -3.019752221477562 -0.6707078328566117
H -0.2257907003877685 -2.39006608303826 1.0159570470944626
H -1.2921112289532086 -0.5364828523708014 1.6140168906707095
H -3.515202813644596 -1.1952623097784774 0.45699946449203416
H -3.389972063074875 1.86849450307394 0.22133462773765597
H -4.859585105051282 0.7719117587990678 0.12153865411109711
H -1.4863742702278673 1.7818722674976584 -0.4235243567382833
H -1.6920039291928097 1.8832699005992308 1.3416165954169295
H 0.6418316018900269 1.4032964844444635 1.7532309501362038
H 0.5704217933120258 2.5442845011096957 0.3724448142719943
