24

C 3.078175974300327 0.2683817950667937 1.5289187659338714
C 3.277971295950553 0.5113200097254088 0.2647065479695209
C 3.174675780748393 0.9778155878790761 -0.9408248670305412
C 2.611917528709712 0.0629307083688582 -1.9180962410326148
C 1.7311303859996554 -0.9521215031389273 -1.3375898286941854
C 0.5388795564948239 -0.6250828669958237 -0.8174882590153641
C 0.13415081634858705 0.7566251844308189 -0.839394099759104
C -1.0006937808589258 1.1485980825765079 -0.3570043667234646
C -1.9752781044327277 0.2655289716154628 0.2477417999052232
C -3.1119151939701752 0.7628266261172905 0.7145454053056841
C -4.125031880623761 -0.03845763522496562 1.3249819153472477
C -4.00067739053204 -1.3346542500785978 1.4678151005860647
H 2.222738017531295 0.5024457545345787 2.0986598320281287
H 3.8922796016534433 -0.21389561060286197 1.970716194106473
H 3.463727354612363 1.9458433847281125 -1.2352875492773312
H 3.3900648098667108 -0.44112612093737574 -2.555313272104373
H 2.0181006708634612 0.6678143732313768 -2.663343630272002
H -0.08598779651852484 -1.4241607739353555 -0.3933379943370384
H 0.7998535310332 1.4909540234460599 -1.272878203232745
H -1.257546233024509 2.2169896422556987 -0.40081489924311214
H -1.7844395285226666 -0.8012313123700183 0.3229473029724673
H -5.02590059736394 0.4379253867824027 1.6821602269681293
H -4.801737463209111 -1.9379530687807953 1.9457521891153984
H -3.1644573550489743 -1.9443474207067029 1.1624279304834908
