23

C -5.4872319041548625 -0.865842260729121 -0.34600597075159084
C -4.2730692300519015 -1.3490867575703465 -0.40903590750910657
C -3.0325009032134886 -1.7638853877228753 -0.4359839415986597
C -2.071479723877139 -0.9463126410898489 0.19252351185597916
C -1.219704663099861 -0.24680935221858838 0.730759869300115
C -0.2195377812557495 0.5915721371326557 1.392357450595429
C 0.6308101202388247 1.2215299308077434 0.2958343301476449
C 1.2467756402323396 0.10527350150922905 -0.4473815911718737
C 2.5249528502163323 -0.08501172854760408 -0.5639716047214316
C 3.4916467870240524 0.7994603449811305 0.037755581840653744
C 4.805672477816927 0.5711249493678447 -0.10450832314405345
H -5.765885358529256 -0.23286689737299307 -1.1432395211637005
H -6.043815610049255 -1.1775724093543303 0.5146420057025235
H -2.8874894677538543 -2.684052380048395 -0.9361354235882564
H -0.6560364017221293 1.3595735294914824 2.0328656365016182
H 0.39003187122412525 -0.07159686485148015 2.0406962361780714
H 1.3053476724674662 1.9739336007417423 0.6791213446221227
H -0.0763320901489027 1.7386835256468522 -0.3979519587479938
H 0.5273206792225636 -0.5893572328513019 -0.9194624551761212
H 2.8850218652914577 -0.9480597066627139 -1.1398336322320788
H 3.251138991570083 1.6671393885168415 0.618992005793936
H 5.138253599458771 -0.2792113794227715 -0.6724622977684548
H 5.536110579096993 1.2113740902456964 0.33132759644187915
