32

C 5.084162344843937 1.9237832674682354 0.24750878942269935
C 4.776357564168443 0.6587781155774992 0.04535142532736685
C 4.391944567193663 -0.5657297532441581 -0.22587832863265458
C 3.324171035779153 -0.7304345195808108 -1.1393901636227217
C 2.3228366532303837 -1.4978710230143022 -0.7289738703436054
C 1.363540441756815 -2.1888573449374946 -0.21160958448537848
C 0.36190303123270967 -1.5074048058188383 0.5366996650339887
C -0.658538361396028 -2.1619578230824703 1.0990850426967211
C 0.4296082440366035 -0.03567112449821881 0.7104777116074666
C -0.8643288826401925 0.515470800609353 1.1929974236751766
C -0.9546743030676806 1.0460467899217851 2.384180767715411
C -2.0352528894252035 0.4612315619740958 0.328874040052765
C -2.075056564123903 -0.04290101623345274 -0.88187414260707
C -3.4275086355101916 0.07292645218377143 -1.4599617765075223
C -4.100817821505062 1.1215355786711019 -0.628009979910462
C -3.3874322439267046 0.9829803404747102 0.7036001743878226
H 4.5564749837036995 2.378271069056813 1.042585474767247
H 5.814163747986172 2.305715138365754 -0.4136676849923827
H 4.961201772771485 -1.3102815201379527 0.30229367023198966
H 3.1639800541343064 -0.34940021628686774 -2.107712530118666
H 1.4294392269342238 -3.2422148605232777 -0.4087361659355627
H -0.729769716167953 -3.223180624050498 0.9877682003417522
H -1.3839007547454947 -1.609532497607723 1.649754991692515
H 0.6625970127150292 0.4048301868320983 -0.28716051499969053
H -1.8855636040162445 1.4395454716258302 2.72427426288044
H -0.08623105845060434 1.0838434661259402 3.019202567266504
H -1.206359102492287 -0.48252645971838715 -1.369589566784673
H -3.986012003723113 -0.8948165042430626 -1.4024889975414623
H -3.421571321125158 0.4019471266746263 -2.5177377414079056
H -5.178483418301189 0.8894920867895625 -0.4928447728181602
H -3.9755125536526035 2.1300578962525 -1.0597882261336085
H -3.285367446206739 2.0263247443831123 1.1045140135237266
