22

C -2.9778802317128785 -1.6376125828069366 0.6601960434837244
C -2.0268282195166307 -0.8902857582123728 1.1745951018149214
C -1.0248585482780592 -0.17639537432150193 1.6033260158864735
C -0.03146026382230175 0.23276594660359004 0.5863311710610574
C 0.3714097440163222 -0.9993444733895605 -0.14470478357610025
C 1.573878596916604 -1.469496370068594 -0.008708914469333036
C 2.7543295480574623 -1.9134822080770257 -0.3339713127511176
C 3.8978383540633734 -0.9909321515595365 -0.09146520932951187
C -0.7502312385417147 1.1160503186645558 -0.42071500499408243
C -1.3357585382930781 2.3419214912704582 0.22691845081175557
H -3.813391639839755 -1.0943232211536982 0.3118849039884622
H -2.786115446421601 -2.688150189019353 0.6590979688159828
H -1.0360007401452682 0.030347359989593075 2.635332422553127
H 0.8401308418446256 0.7487559998637886 1.0381293359962398
H 4.114086366676416 -0.39684142163482755 -1.0117346300810555
H 3.7664863397299087 -0.3694336634781295 0.8009646380466835
H 4.7860616346444 -1.6364096596729434 0.0824491235216
H -1.6039844715336087 0.4970626445854308 -0.8031968307854415
H -0.12534895402958482 1.3784633090405634 -1.2764546794774294
H -0.5763924470211259 3.0719973430051795 0.5261954935090022
H -2.0023057815196954 2.816560442335261 -0.5386646980027133
H -2.0136649052737887 2.0287822180360724 1.0489252222578993
