15

C 2.8322862402957596 -0.44526330520694296 -0.5927260200349455
C 1.9012524178020695 0.07445060779276173 0.1876109411435747
C 0.9228914581339817 0.5185316806006861 0.9312702631480639
C -0.3211106720739775 -0.2534018568159276 0.9006426685092342
C -0.564145459979185 -0.8715175630452736 -0.42286797945905424
C -1.6910084233632179 -0.41114271469181046 -0.9441555504900403
C -2.2402955053097378 0.5340948981328627 0.01859955018115221
C -1.4758067303022488 0.6456015314920486 1.0877442359432759
H 2.8237862004574383 -0.08156169103014535 -1.580309546346454
H 3.4519864577621306 -1.1521098024192653 -0.11477747965775265
H 1.147399126563612 1.3939607022795344 1.4744329366722912
H 0.11612869640680984 -1.599826874844488 -0.8684819197797324
H -2.065062886164523 -0.7262203812330891 -1.907081334854198
H -3.180845385937142 1.0875848159568677 -0.1308077201107338
H -1.6574555342917945 1.2868199530321913 1.9609069551352938
