16

C -2.941612865560427 0.8574726739642855 0.20278367154251029
C -2.4826733813583868 -0.2888834619984955 -0.19065606902696383
C -1.8631238374172923 -1.4313815459643258 -0.44910380301816405
C -0.5838671988237416 -1.654921122814248 0.2779432411596123
C 0.2457608270167863 -0.4068121563605474 0.106691556070745
C 1.5636988500126427 -0.5312090955834806 0.8068643521661009
C 2.5529829519170844 0.2557985508810217 0.42794876148001404
C 3.2469667433885703 1.2900733163330975 -0.0029353698122474873
H -2.650583376876429 1.7401090351340085 -0.31450787420327114
H -3.599747483380035 0.8888411042458615 1.0394829522523195
H -0.057335022123893534 -2.478605813503023 -0.23495865984448674
H -0.7341895581683484 -1.8399698929308272 1.3532415289852608
H 0.5108469488295173 -0.2838449783004432 -0.9843764712316889
H -0.2598019241850231 0.49706286461510496 0.48875634232782567
H 3.7886795803195303 1.1789728658286855 -0.9238899015895792
H 3.263998746409587 2.207297656453239 0.5488976988693706
