31

C -4.227970073805036 0.9505382866349342 -5.518192440300518
C -2.930060940365305 0.7869470475810493 -5.358021033966294
C -1.6559023559274293 0.5630493756201904 -5.122626401632869
C -1.3598113864245553 -0.4120485276638983 -4.116330475289673
C -1.2507422141735256 -0.18709127217593946 -2.8373514729597717
C -0.9629828005201762 -1.0945185070114591 -1.7949344387350745
C -0.48606943488917087 -0.5715718683357224 -0.6862796254798995
C 0.042678899587162124 0.0673212105665248 0.3528328312881648
C 1.465415334209175 0.10694715302630192 0.32907574172825166
C 2.1749531942655382 -0.9618102031447219 0.6848027735153299
C 2.6960867521724277 -1.9932824278289771 1.2858776324954861
C 2.8457200857451483 -1.924532760361561 2.735633398753713
C 3.831874060086499 -2.628497431924082 3.265290454843008
C -0.9106619511394615 0.5716101577826367 1.2572892876751927
C -0.6401535771095043 1.231632962643603 2.3464709865751696
C 0.679912899091034 1.5670527233594245 2.8255902239671236
C 0.7842575678831741 2.255195406426397 3.972249511336225
H -4.658511934148768 0.31637056931498775 -6.2472506393878025
H -4.659124019355105 1.6908306981241017 -4.897185821061468
H -1.0012799410479936 1.1431926545698283 -5.718145030479933
H -1.2086126970870814 -1.4526941779385292 -4.443403486373498
H -1.0576943122205045 -2.142625285180528 -1.718332220240644
H 2.085186817338418 0.9405789015766042 0.041799219481565335
H 2.19889460050656 -1.337437830152419 3.3773859288324197
H 3.9891339396879193 -2.6147078172645193 4.332019676471642
H 4.500241968831249 -3.2286869460598058 2.6721692623350255
H -1.9947597609975671 0.421186315024983 1.0736884717813842
H -1.5126944427416054 1.5621192349938586 2.955475050330747
H 1.588874631141168 1.311223484868008 2.3395852372279684
H 1.7382417493242652 2.5301146011740014 4.3730588034638
H -0.10444065786937912 2.533594271708685 4.494472858049718
