20

C -2.6093366699854457 2.4584994527327306 -0.06433565296180073
C -2.087873031851346 1.2459121479993285 -0.11086697258444025
C -1.539297984485538 0.05028170691854061 -0.059553901286057837
C -0.9266769130654763 -0.3291544396541465 1.2045885172847546
C -0.9017114908153192 -1.812747115653477 1.4345796324847038
C 0.33987896816673135 0.36939184320062546 1.533731908881681
C 1.3264316428042418 0.08653276484450133 0.4843406609733803
C 2.1326273843912897 -0.13921959973251044 -0.37083243067532107
C 3.1463145389030682 -0.4304890929864004 -1.4139698219448245
H -3.618421494280095 2.4838448205072186 0.24577591929376086
H -1.9408319967222165 3.2277702964055957 -0.34348176564926275
H -1.617314011245086 -0.4913099637097385 -0.9653959813113383
H -0.22152243995127677 -2.1099286197898968 2.2336141227056654
H -0.5781972950133841 -2.3548581245305877 0.5153581627709047
H -1.958445250683579 -2.1325360667731457 1.6039769047500665
H 0.134236845514693 1.464623592277257 1.5597989449703535
H 0.7055654094478031 -0.00810108950476832 2.510433652278863
H 2.6625764495265725 -1.0446982878786013 -2.195010900560734
H 3.5712983426019678 0.48446083124980216 -1.8424249766718552
H 3.9806989967407884 -1.0182750559223317 -0.9835232014975412
