22

C -3.9009949463158327 -0.2101316690479366 -0.8430814435703466
C -3.6234451648863906 0.0655925204209005 0.40725211506114706
C -3.2481258698605178 0.3166296238455055 1.62955216764908
C -1.8668614138997608 0.1709835687149804 1.9390039893146167
C -1.0067894650135434 0.7103658334300391 1.0846204311033738
C -0.1688257440453621 0.9841620699478556 0.10775859409162329
C 0.0011937155937701963 -0.0431977247202261 -0.9743573427328441
C 1.2023090234654166 0.3221295677810599 -1.812279209963169
C 2.3618444231763296 0.330743433641835 -0.8910247178827574
C 3.307535590755986 0.358050902887278 -0.1464447384359894
C 4.437144837693964 0.413294395346745 0.7576823331923802
H -4.143813979426957 -1.2207685784011737 -1.034663597596752
H -3.845437622232886 0.6174053410973993 -1.5035646663975706
H -4.052513600250352 0.6120707804291116 2.274252604740463
H -1.4180548480809343 -0.31749476662605564 2.7688485623899806
H -0.9287351993383144 -0.13458730787702172 -1.5559903539125186
H 0.27062166769749424 -0.9885884108515305 -0.4334134318211496
H 1.061297524453015 1.3480830136976798 -2.224100835308461
H 1.3292244812221978 -0.4094342692707852 -2.6250008365705932
H 4.952210179024635 1.393449852019574 0.7313014701368882
H 5.148776458863279 -0.3796983029597394 0.515555590664233
H 4.131439951399681 0.26200581135078516 1.8280933158498989
