31

C 2.974208381567258 -4.915598049522923 -4.838310281152415
C 2.483764553186851 -4.401531022563797 -3.736694880947762
C 2.4059288700455093 -3.648213797113055 -2.673990736823103
C 1.8350566932452506 -3.009350216698569 -1.659289608867427
C 0.8379632235630163 -1.9806127601407497 -1.8628785755722863
C -0.4197192392830352 -2.0514688745143843 -1.3870228371012692
C -1.084732915632208 -0.8608511860101941 -1.7952056524468176
C -2.015532627680071 -0.14339906974331149 -0.9928434208402052
C -1.7325850723784018 0.4653375866295894 0.12025346312644371
C -0.41033713837532754 0.48229499064573356 0.6833579324453487
C -0.07374171713431406 1.0862206002293513 1.818450705038872
C -1.0324498008935765 1.8115554921455792 2.6299360009336405
C -0.6646810318378109 2.3845755401415323 3.7477583442388247
C -1.4980720591172574 3.134079656460056 4.653474321013685
C -0.9315968657300883 3.639796816885178 5.761334943752341
C -0.12295446494430128 -0.06891353149727958 -2.5371991130569573
C 1.0308792221442018 -0.731506761996167 -2.587620677919758
H 3.5143341178051744 -5.839620005139281 -4.810231580151089
H 2.814415631718714 -4.377824689215573 -5.7570251011113625
H 2.158153414935612 -3.3074919301102343 -0.6715494736560671
H -0.8043264212779142 -2.875642318604073 -0.8088231780094158
H -3.079052931552886 -0.07852048201362145 -1.300409562225517
H -2.51261663747684 0.9879678454412616 0.650379500753877
H 0.37284230881195146 -0.04096346937422784 0.1314580239706846
H -2.085352955385711 1.9132939062035033 2.3640614790692895
H 0.4071679973976563 2.2923155885529916 4.027282185756873
H -2.5226385745167397 3.2975908620817465 4.457478134408008
H -1.544743125289034 4.201472898483852 6.444566170072761
H 0.10816828330488415 3.5062617539645715 5.991063623819655
H -0.34007065918473944 0.9104828335189983 -2.9727974206196826
H 1.932321541091898 -0.36942658248043464 -3.08896272923577
