32

C -0.9999607306641125 4.595626026755947 0.5231597661629869
C -0.7909505211116391 3.350801946825589 0.9189511566409801
C -0.5283513089465578 2.113024224789911 1.2587178325087363
C 0.5558323083703597 1.4663085158891178 0.5198684271458048
C 0.11144857476450379 0.9585098804078995 -0.8456004663396613
C -0.24760705160688726 1.4432965571407008 -1.9830227928771236
C -0.4884321835789722 1.7381235378769344 -3.2537756128918107
C 0.42205778414323397 -0.02483952274152644 0.15543399050780032
C -0.5906376321154986 -0.6843640149720122 0.9849065804356423
C -1.2543714750463582 -1.6548275168622322 0.40977985775577774
C -1.9111905597684193 -2.552238326224087 -0.2682605410729424
C -3.055233186699189 -2.116818272981851 -1.000314646390925
C -3.781866193129149 -2.95546669585678 -1.7159686723067726
C 1.7444686988306217 -0.7054794891177438 0.1762285240979516
C 2.520999402520381 -0.6203804275553373 1.236587077194763
C 3.8205942811835474 -1.2949317249730674 1.2448122580755603
C 4.602832583901731 -1.2165137708497393 2.297158718289708
H -1.7012897596163787 4.687889705965216 -0.260414222251424
H -0.4337918536621989 5.316232266095887 1.0485858520003506
H -1.1387749887932137 1.730683765395803 2.0328735140312704
H 0.2757412903435752 1.8387143441071434 -3.9943965111933126
H -1.5032905616885623 1.8720705565865405 -3.506369410355488
H -0.8799726861432934 -0.5039268125771423 1.9800119546786836
H -1.5087444832400563 -3.529282575101859 -0.19768054391537015
H -3.3650677070860833 -1.0838652792908259 -0.9925393842036331
H -3.4897687621918685 -3.991014002550971 -1.7368586408814954
H -4.6413325031581625 -2.6096035339410113 -2.2617084168507713
H 2.070917914724886 -1.2713361571412254 -0.6787882943172789
H 2.220257533953936 -0.05600475486452769 2.1174317504584823
H 4.131882179213612 -1.8685994505750856 0.3558192143824109
H 4.284926591885377 -0.6555536852008643 3.15121969034605
H 5.548675004410792 -1.7162353144588878 2.284151991135401
