15

C 3.311859533716824 -0.15819714867193438 -0.3054155610757717
C 2.0801386109717517 -0.5699281837954816 -0.1949806472375706
C 0.7609815412960766 -0.6392013165350655 -0.11830409064044932
C -0.04885847391184481 0.6207364816958371 -0.2753911457508665
C -1.4199210684824608 0.4212520194767152 0.3278460772641241
C -2.18996460928162 -0.6918596569432135 -0.3131341062393349
H 3.770769057015029 -0.1177711498741635 -1.2750729070853384
H 3.8460613810076927 0.1366892400039201 0.5781552034180347
H -0.07426326792987348 0.8645748888140118 -1.3420141486965431
H 0.462580846058471 1.384679438477136 0.33783120548593787
H -1.2797830880613297 0.28223460837208375 1.4175359228671207
H -1.986063288346392 1.3664025340328054 0.14122545327683
H -1.555593227929484 -1.5377654440655522 -0.5825886027728969
H -2.7055058210068124 -0.33949863204398795 -1.2302868986938922
H -2.9724381251158936 -1.0223476789431147 0.4081293879498384
