25

C 4.742862806408403 1.3352834225177292 0.330677152882766
C 3.671750244146123 0.6102886917848367 0.4925507917649011
C 2.530348440489163 -0.020610761944420478 0.6255925232176524
C 1.3563926613196386 0.5811463506726473 0.012547423841535742
C 0.3277651731124819 -0.5230759809044608 -0.15352590015824494
C -0.9539888397565928 -0.2851138801421277 0.028668507850554352
C -1.9491204624823941 -1.3573418643283346 -0.13295584468554844
C -1.2803153651741006 -2.6536501220705393 -0.5106415752202085
C -1.3801218287762163 1.1019550083648055 0.40464477858520204
C -2.779731008267986 1.3547874498002228 0.820039254070603
C -2.320988115394708 1.7374307681582748 -0.5805504937097614
H 4.934811144307501 2.0652965289202943 1.0813185309172397
H 5.30188500293393 1.1021458158360908 -0.5507748513956402
H 2.6158440996595678 -0.9278949005741551 1.1879842906342128
H 1.53332567359816 1.0010601891047526 -0.998972061766515
H 0.6463503064143382 -1.5173500157868467 -0.4242874449718942
H -2.647358053585673 -1.0660788246101458 -0.9649531372950942
H -2.527696929179679 -1.55156131289365 0.7995345034820132
H -0.7384896082181146 -2.5089953815843735 -1.465594667999911
H -0.5714062005480685 -2.9242401950192107 0.29999613370204403
H -2.043249196696253 -3.461583241879286 -0.6428711084916116
H -0.6051495695246218 1.7420152600687173 0.8726912281840256
H -2.982486156842056 2.170508023494747 1.5512527837081902
H -2.689736196459357 1.1578943255679008 -1.4323764651103483
H -2.19149802148334 2.837684647446453 -0.727035833729419
