20

C -1.3118680575752706 2.7729357527834577 0.8393765706453008
C -0.9273952137720874 1.5320809628852945 0.7029513077808244
C -0.5426381283265534 0.4172848933627581 0.14793281440519543
C -1.269190300069961 -0.2506503007749269 -0.9368901350342471
C -2.478769883232154 -1.0017397441336486 -0.49380718895823666
C 0.6729734313037146 -0.1055330100288355 0.6959835875942265
C 1.781620592688587 -0.2230488563920771 -0.3694357058402202
C 3.0068797867382906 -0.7795529155202426 0.31149811532100036
H -0.9519055445241065 3.598289886660248 0.28614026274663706
H -2.0339097220711237 2.874563993199504 1.5707228382573923
H -0.6319369764287547 -0.7793918136162565 -1.659410751774029
H -3.3660710484646437 -0.5595313665979239 -0.9945942971087861
H -2.4182367777648786 -2.085099172821399 -0.6971520867030486
H -2.6810417177792556 -0.8922349006907154 0.6099158709121342
H 1.0861052632391042 0.48017469352120573 1.518478920889983
H 0.5893473160430187 -1.1467344308610805 1.0910152374662059
H 1.4277384962098858 -1.0314629274179379 -1.0726282107623337
H 3.712894832390383 -1.2496598265394838 -0.4155809555545867
H 2.7497969176454533 -1.5791009972830625 1.0352694167273822
H 3.5856067337504034 0.008410080265141204 0.8257575531861524
