21

C -4.450497314164483 1.512136179783723 -0.02127137981267425
C -3.649594043939724 0.4743075721578343 0.05718836450419852
C -2.7700811043847753 -0.5070429814371014 0.10828283422681391
C -1.39557495504159 -0.16168310227551178 -0.2245447748918564
C -0.5050684162247853 -1.3421310937552822 -0.43304836981700384
C 0.8636859364275715 -0.8315846887910978 -0.7653970727135946
C 1.8502946175512442 -0.8620730725997292 0.14418655926517035
C 3.1725934106086147 -0.33877247699904034 -0.2636106644796601
C 3.1956366406443952 1.140885897057472 0.0956091038780036
H -4.545466122285777 2.0639484975346565 0.8789817736578384
H -4.891862356736943 1.6578600532973509 -0.9722024189479626
H -3.1876817250598317 -1.434544975710456 0.39004042235628783
H -0.9584666028971576 0.6471440715284973 0.37690228222433786
H -0.4168698397765314 -2.0079845590143455 0.4246966628155086
H -0.854161116248477 -1.9104087776639607 -1.3268011176856571
H 1.6698457550010923 -1.258558856969611 1.1372532136428368
H 3.3794575322784026 -0.43591022551655906 -1.3297203085495326
H 3.980864318843919 -0.8316117777502884 0.3212665457547828
H 2.6370246603325103 1.244889211203923 1.0678614438921954
H 2.6317480878985746 1.7210274429672863 -0.6639299852850384
H 4.244172637173705 1.4601076629522507 0.19189224462049326
