22

C -3.625597625481241 -2.070382524913808 0.13712256010007318
C -3.1686991526787214 -1.0564024418424385 -0.5498013429548044
C -2.6522507332631244 -0.003154273601023865 -1.1599453628601633
C -1.6762305709157934 0.766043982373846 -0.4122847648080783
C -2.2518100880185745 1.9539169410219368 0.31723453162856946
C -0.7488877758836631 -0.02261336840624198 0.4030561238360478
C 0.5089930488919744 0.31750389482976193 0.4211860162676686
C 1.7807208571441118 0.5395272795259023 0.254616051606812
C 3.0358623491835157 0.5640900512731647 -0.060683499899420595
C 3.915718067006773 -0.588056262878101 0.08595303400691139
C 5.178417614587741 -0.5421008541732375 -0.23793524918229023
H -4.481008345511247 -1.8700535551833368 0.722852565057191
H -3.0676875513753896 -2.9734494832411 0.014257352830427216
H -3.030751210305722 0.13965221289229296 -2.1363959180531693
H -2.5518161613244104 1.7000926650141464 1.351275833224698
H -3.072373118460236 2.359028102111616 -0.28680804427460826
H -1.4433811010266504 2.7173725128249058 0.3910398283583886
H -1.043894921678609 -0.8809518445477016 0.9995371078989341
H 3.446058990144082 1.4938916159732933 -0.45354994212063204
H 3.5139125572985774 -1.5120273782360851 0.47493532020909013
H 5.611284501073255 0.36459914146668154 -0.6290950891530819
H 5.8234203705935 -1.3965264122845706 -0.12735970072062242
