21

C 3.475556880248014 -0.7985857935721462 -0.362328277930239
C 2.576068100750222 -0.14670201110764636 0.31534640439249867
C 1.5962016325418422 0.5139202484494795 0.8922917761082388
C 0.36222900748746345 0.616489620809425 0.17781188030644743
C -0.7036571365569894 1.430973526476508 -0.07984025660442734
C -1.414857506447379 2.720645331965714 0.11781299361614658
C -0.671929230701838 0.10002338026342088 -0.7193303731833722
C -1.641166619409094 -0.9464888021745237 -0.23782604360903473
C -0.957460286378912 -2.215063357395208 0.20377331088460807
H 4.090991336954678 -0.20855932229396942 -1.0072903131955429
H 3.4889165701573805 -1.8502421199839527 -0.1915230768820772
H 1.856655443989209 0.8974657112442377 1.8436954352182269
H -0.6809924696180687 3.4702961528072636 0.4790508301629621
H -1.7879172569044897 3.0522624086137173 -0.8497406575091446
H -2.2295149839520043 2.5356687709587113 0.8631415664217937
H -0.41279696575730007 0.13945340309166748 -1.8032425873166527
H -2.288681025413727 -1.2131571885556793 -1.1028293335263477
H -2.274033010308189 -0.49497978910674273 0.5330051132800515
H -0.3173608078751079 -2.567277791669583 -0.6106579816626979
H -1.7334333707235263 -2.956564916029077 0.43598409189933574
H -0.33281830208176344 -2.0795774627915753 1.1026954991291877
