24

C 4.957942427623632 0.5420101158538931 0.5266291714344435
C 3.916248848113121 -0.2376418550359718 0.4004497562107697
C 2.8143637618790907 -0.9445485367771376 0.2980533691023077
C 1.5597215761856769 -0.22106181079950704 0.4664670133900905
C 1.5427818977397745 1.1266133057560679 1.0363749355956464
C 1.239342884966361 0.9204620141414455 -0.3990681203764407
C -0.14775469780751987 1.1650835543077784 -0.8924053906630774
C -0.928471257234559 0.10230357962836543 -1.0211353590654475
C -1.4632594767640765 -1.083416390020045 -1.0401606580456382
C -2.0882215904873114 -1.5689753888297728 0.1710962629837724
C -3.2863120434708812 -1.1091008072275708 0.484823411542036
C -3.9824956807995795 -0.1441803141724913 -0.34042377036789573
C -5.182002423577853 0.30915469401437856 -0.016075309459267748
H 5.3419631855792895 0.6365002236520331 1.5058999853566892
H 5.290718323541643 0.9901437847081167 -0.38844612092275543
H 2.9807910022128516 -1.9679347962968998 0.10276679349699529
H 0.7501075108095655 1.4571998413538256 1.7524238943494075
H 2.545477641759035 1.5599089017268257 1.289253277438301
H 2.011587819567174 1.2266227420844515 -1.1368077676165391
H -1.439068823021553 -1.6843394654212123 -1.9224484031975384
H -1.5861647002512829 -2.2913756130810623 0.8045626985989288
H -3.4797749117479975 0.19797288884705774 -1.2448479642996908
H -5.69235340504828 -0.01051349392280512 0.8621003756523667
H -5.675167869766553 1.0291128255100674 -0.6532594186073242
