24

C 5.332063830486538 1.9499177387646636 0.6011208834266016
C 4.106257619832891 1.4929696142975315 0.40939454020301863
C 2.9429637232926757 0.9407779422798423 0.36649461255066773
C 1.727495088177502 0.4337386138002952 0.44310561082450084
C 1.6204663369196504 -0.9590715192811555 0.9046000199902426
C 2.2828788792182326 -1.8716641026288643 -0.0951076647888075
C 0.26016160626215284 -1.3700356012264112 1.2566690933870408
C -0.7165241164139684 -1.0038022862896339 0.44936712703975296
C -1.8414282587894415 -0.61773030644957 -0.035055976998194294
C -3.0280004566833436 -0.5078839233658523 -0.5278713198877093
C -4.259476620879702 -0.5753050234794701 0.21669375456081344
C -5.0308197454415176 0.4709564614127446 0.1554000972397801
C -5.751805398688899 1.5656833013362499 0.042177841838577125
H 6.098140471465827 1.6853160301293402 -0.09400708721640844
H 5.495519288311274 2.5775700893041473 1.4661273708242346
H 0.853132852409705 1.003033389057967 0.18315768559360987
H 2.235503708368464 -1.0270840608218024 1.8497633469677015
H 1.5172148038410562 -2.423648030053769 -0.6902339525150016
H 2.9522121781192485 -1.287741497499358 -0.7635143250887482
H 2.9292167317520255 -2.62814388555635 0.4185171526777283
H -3.1111437082338864 -0.34839251591781056 -1.6132946574835165
H -4.626852078811331 -1.3648355479118999 0.811797496096207
H -6.437378971221833 1.5605366255170232 -0.7643605122950835
H -5.549797763293506 2.3048384945822002 0.7712797270157543
