22

C 4.998233131616106 1.29398351141595 0.21122646300075473
C 4.271210411498069 0.21635929308110044 -0.0175968415129142
C 3.4847722672796797 -0.8204523332972822 -0.19961837947914898
C 2.1825909764312255 -0.7329795735639332 0.382468580395151
C 1.0874539384755921 -0.5704770302169889 -0.34005052195388846
C -0.2317616580513904 -0.48377617109074555 0.275589878090218
C -1.290020395085732 -0.3242315830785185 -0.45672751766931097
C -2.6373628531165556 -0.21582547643126013 -0.09852151098216366
C -3.3591509202305128 -1.3269233595330385 0.5011562681229488
C -3.2249794046212954 0.9170121796318953 -0.31899132142488634
C -3.839104782651644 2.0565540603663712 -0.2860845202767563
H 4.901268276773014 2.0476251200194606 -0.5262281511523124
H 5.572625577670906 1.2534519426889748 1.0961378039518248
H 3.92502160306031 -1.6004985727121726 -0.7639080606464294
H 2.1039145232856704 -0.8044660535910492 1.4640682142177481
H 1.224245848956713 -0.5049137210732771 -1.4200592336861737
H -0.29830676755973595 -0.5559407166810518 1.3492818823212922
H -4.33312553782121 -1.5210869776518046 -0.032119672684536395
H -3.5911929439778087 -1.0820219818375532 1.5712573442188618
H -2.7457005428193013 -2.2553600792549573 0.48586921430074015
H -4.39551222170734 2.2928587029808707 -1.1395077737280794
H -3.805118527404659 2.7211088198289834 0.5213944220178055
