24

C 5.151049103477574 -1.2326626285334696 0.08276247671272173
C 3.9842331110670375 -0.8368972791548266 -0.35478910569948446
C 2.8252024537991476 -0.3744830160513144 -0.7268631432181887
C 2.288607004691501 0.7205424676383234 0.025786941349758837
C 1.1344461187563422 0.6716713635087922 0.6679564670105956
C 0.6300080328868863 1.8291276446946167 1.4275407349915068
C 0.35123955502737947 -0.5759546114779298 0.6102938960622422
C -0.5288281856297932 -0.669752658836616 -0.5546864271792286
C -1.7926841849612767 -0.4653025475221794 -0.3397800827567951
C -3.047782148280234 -0.17050779571049385 -0.17955542838791466
C -4.3647985049727005 -0.649691346791756 0.11930820376909779
C -4.136642913770514 0.769360370039814 -0.15393828819944516
H 5.983639772622242 -0.7537992116274482 -0.35181286835876174
H 5.111038461945731 -1.992554358175354 0.8277986921760881
H 2.4016898643206073 -0.873801448952644 -1.5644686980553753
H 1.0885715611386206 1.8361401324536706 2.4405078276793404
H 0.8980017381754817 2.776623080923077 0.9197019019555422
H -0.4884700936974823 1.7869277686544522 1.5252490672273693
H 1.0259128545336709 -1.4353697266657335 0.7385925662432286
H -0.2454606790170732 -0.888520910212907 -1.5650955192593237
H -4.68281631482576 -0.9664566387701522 1.1302007329621317
H -4.905327473419199 -1.2252281303212194 -0.6800730806401818
H -4.400906744763944 1.2625796663364897 -1.0992360469170581
H -4.279922389103518 1.4580098145548266 0.7312533570174956
