28

C 5.235198343025453 0.29644525995971677 0.10699913052473228
C 3.9608755352894254 -0.04458473872958709 0.17408452757380782
C 2.7260903562397263 -0.4393926511399567 0.23955970623426606
C 1.476768330679736 -0.6039074320246004 0.8957429057039363
C 1.655518493007514 -1.1044627212437004 -0.5140901712724752
C 0.6333774926802122 -1.6958501723254258 -1.1305299904900385
C -0.7512059772499126 -1.9580198968840699 -0.6935940834580321
C -1.5017839288547528 -0.7187617999340258 -0.3878242434939575
C -2.8616863983562717 -0.6027688068514834 -0.8659537968318461
C -3.487402855925576 -1.5374072726528414 -1.5683482454217714
C -0.9666464602398003 0.2855710417606844 0.31828603280288953
C -1.902741505315125 1.4153980416518646 0.49147573960942237
C -1.453953966698406 2.4523121099588296 1.1872057507752531
C -0.14038305010199373 2.5953259551513383 1.7955371753557097
C 0.7367254085568214 1.432096380633545 1.5888028224807307
C 0.3661881624058143 0.35379196137781815 0.9016466087896151
H 5.423807477206351 1.3179796387659701 -0.16562781467019888
H 5.954782116427558 -0.4535234552470632 0.32409682938223144
H 0.8547545203993784 -2.0417762943143924 -2.11682121452894
H -0.7119983559387452 -2.548298261982331 0.25289918121097976
H -1.2737887304967161 -2.5598744360878056 -1.438601788373297
H -3.4539438311749393 0.27302877554682486 -0.6690305034977264
H -4.5061646457275515 -1.3556489321265215 -1.880793020400906
H -3.0635234449759867 -2.4604645804772827 -1.8469059036721254
H -2.89132848755826 1.4167465642186332 0.08413863342553467
H -2.1573395288219057 3.274278451182776 1.3051527205219267
H 0.37167340875567056 3.533472057108446 1.5858494196795963
H 1.7281315227688818 1.478295214705392 2.02664359204205
