26

C 3.6690142056705697 1.2244695698487658 0.40052377456767385
C 3.332766705779494 0.41948629731415255 -0.584575361517061
C 2.9652051416774805 -0.43431546419848494 -1.497344976766794
C 2.3076097848571893 -1.6278356549577893 -1.034506622576148
C 1.0735660982039752 -1.6365640502527719 -0.6412914745774078
C 0.21445885146535174 -0.45450966651031216 -0.6206981296581303
C -1.0472408470243946 -0.5025500410609496 -0.2103368796761144
C -1.822596190377361 0.7230132748609168 -0.2255731350633266
C -1.327664345534578 1.8777327971142612 -0.628566312717453
C -2.13904126951327 3.098885584830864 -0.6314347384882263
C -1.6655860036861048 -1.7197761099949738 0.24509729136228822
C -2.09818674042722 -1.921693674692096 1.4681540235088468
C -2.167095202710041 -1.8870760706704337 2.7710281256618146
H 4.633806090454306 1.0513896769140487 0.800971419159269
H 2.9289680621619256 1.935937606031061 0.6600581876734392
H 3.195230822999219 -0.14875601726926083 -2.487217811243327
H 2.874550028720729 -2.5454008416657037 -1.0188012451208142
H 0.6231935352604421 -2.560586180824958 -0.301579720081883
H 0.6631431410159238 0.46800634014036935 -0.959559081416632
H -2.8447608303743457 0.6945805133692845 0.10465272521880048
H -2.7930866210079546 3.065633723126782 0.28615426213427453
H -2.842787462362056 3.1664396391739436 -1.4897986979840365
H -1.4593706490973577 3.973518858410684 -0.5698142882233219
H -1.8173737095767883 -2.543813219565819 -0.36994869484253473
H -1.3844635239591567 -2.20556304699628 3.4140467630795803
H -3.0722590726160304 -1.510653842475264 3.120360597587265
