20

C -4.801918822586345 1.0234226471732324 -0.35474854937036193
C -3.899874265751309 0.18162997521701538 0.10803190655828478
C -2.928889294513714 -0.6022198976300189 0.527159462039377
C -1.575031562282103 -0.2133539036597918 0.15073509498865317
C -0.5253945224838806 -1.142085748407602 0.5367276881977512
C 0.673934513628558 -0.9055034490121275 0.03011263282934607
C 1.8271372415993639 -0.536504398350766 -0.4591342324807947
C 2.5902776146395694 0.4051430439121566 0.3665456854478566
C 4.07143950068929 0.2723547894369917 0.05841902209837609
H -5.0261708564068 1.8248052597253783 0.29790330725704534
H -5.174070357998795 0.7790812914552697 -1.3147748354517959
H -3.2634859911981993 -1.4286604399279415 1.0937512413034651
H -1.3915493789510842 0.8174868687883671 0.5275293706627696
H -0.542348206232404 -1.9896706091864624 1.1619404231248176
H 2.0672726624458213 -0.9617635329962549 -1.391797922996696
H 2.4205550058751717 0.22414231127638345 1.4328244199887912
H 2.2621205054344506 1.4327975595132707 0.09687340997636745
H 4.585260097898326 1.0015320494464786 0.7410836017548299
H 4.25089747689491 0.5691113042521276 -0.9743600611111842
H 4.379838639298974 -0.7517451210257104 0.29907516635836856
