31

C 5.135832459840747 -0.8774503896953711 0.13882588014150457
C 4.4227822256498985 -0.7990228707518172 1.2386515289568556
C 3.646749579092662 -0.7824080788208859 2.287849132551742
C 2.442420842736616 -1.5416787368619502 2.2224518300133798
C 1.7423426053313744 -1.471546355803135 1.0995155308485955
C 0.898759950727066 -1.1651633744415602 0.13292427467995369
C 0.1026391456837901 0.03752183976157963 0.2551515270542039
C -1.3058009171234997 0.0326611520515997 0.04204441900958913
C -1.7096748488001303 -0.015020150005774387 -1.2120483806853246
C -1.998754560012985 -0.15067073656180835 -2.4846109316738065
C -2.095535989761875 -1.4887157346933868 -2.9591410708655803
C -2.851722872887393 -2.3115485551581587 -2.2696583973604234
C -3.629960048106209 -3.0587425926529854 -1.514686789377303
C 0.7004841652375277 1.1646934341750925 0.5720773519004253
C -0.039944020326036736 2.4246988203169546 0.7142250932166374
C -1.3354501057934247 2.391082900299041 0.5124415785915202
C -2.244839187106444 3.538141430076231 0.6064205862675122
H 4.912810592971845 -0.13900000309149865 -0.5862311260515327
H 5.838232956505625 -1.6685573470946622 0.12239754387542096
H 4.020016191691825 -0.18460051633858982 3.0901372859497944
H 2.026767768204009 -2.1683607530021076 2.9794940763485456
H -2.106467897308767 0.059967867030612416 0.7285163557429967
H -2.1199224401344305 0.7684721603137314 -2.986718147029259
H -1.639984321805172 -1.9409601515803505 -3.8073019929319196
H -3.1285854711056684 -3.5526986805002516 -0.7250553411700164
H -4.647596595353079 -3.0599236194885577 -1.8029242841525523
H 1.7817480886574655 1.1476562368743501 0.7314931653096163
H 0.513941499014981 3.297903125110593 0.9733254902575158
H -1.63989888304871 4.45604956818099 0.3812924715997122
H -2.632913777143561 3.578354426014134 1.6593120836547601
H -3.0584761353124117 3.478865686576235 -0.1401707451866685
