30

C -5.664851795624443 3.4675530029669654 -0.6001175339972539
C -4.549472772468755 2.7786427723393734 -0.48467029145115553
C -3.611420161349312 1.8981213808531314 -0.30208753677236694
C -2.8322197849598005 0.9076611810257091 0.030262618690488387
C -2.915854739156747 -0.35108128049582343 -0.6351747722200161
C -1.7626616521476675 -0.9324232085000748 -0.9120300038684832
C -0.5743215901475228 -1.4660773336290471 -1.064411831479126
C -0.1089162007238583 -2.270061619226585 0.035907597175664975
C -1.0687661938452808 -3.21519759172556 0.6619947972807078
C 1.1186065750531566 -2.2169955715021565 0.5205547126968703
C 2.1130409468529923 -1.319703618215123 -0.03697111880730397
C 3.3358394684098376 -1.2761365894295567 0.45612300789067595
C 4.341925710046301 -0.37828656057869314 -0.09686135555487974
C 4.279318892215741 0.914661893124368 0.030533262185747694
C 4.413463575795868 2.150483076168892 0.40687812573820215
C 4.47695289404506 3.451137869022411 0.5178169851409901
H -6.232089961775888 3.7994425136855043 0.2552250821946825
H -6.0089310158898765 3.6996257795810137 -1.6041874684765096
H -2.1179453854452985 1.0605995615013888 0.8243435816685208
H -3.7438767588983364 -0.9186715401715665 -0.9542131332321857
H -0.10787392043791232 -1.2355109247819622 -1.978841970695088
H -2.0248364397014567 -3.2698389788527757 0.1204807387612019
H -1.2709301615543054 -2.811282058024551 1.6950895206115435
H -0.6060656793589709 -4.224131338831598 0.7213726371691133
H 1.3835198299381324 -2.8464458277016917 1.337954996613087
H 1.8304416063265299 -0.6889074974507227 -0.8636665744221756
H 3.6462171569963293 -1.8960528036035091 1.2830091389632863
H 5.181857284697446 -0.783621998876832 -0.6381338951790345
H 3.624189704375661 4.069970301523292 0.7646085008816692
H 5.455660568732364 3.902527009804516 0.3461080244463897
