32

C -7.736377988774511 1.4507202029270287 -0.48658479279913774
C -6.60152514753153 0.7794150002009635 -0.5900051424588377
C -5.481236067495285 0.10015927704151968 -0.6185259991853518
C -5.015440393518997 -0.3969070585219871 0.6367711350061865
C -3.753030683914317 -0.21698590377739654 0.9076287926647396
C -2.4489746414723244 -0.08108787173794539 1.0411293739446563
C -1.6340155102649399 -1.1683489475637576 0.5114906622413004
C -1.1237084549452747 -0.7897287421242603 -0.8364667637919807
C 0.03029063303507495 -0.16335480877157452 -0.9503697760256018
C 0.8152851113394435 0.16007134112484842 0.28246187037928167
C 1.4715231288047899 1.4654901768725728 0.05392720669824389
C 2.7795653742419995 1.3136212296685064 -0.0032643162154262877
C 3.0745961129139223 -0.09573195792278985 0.18270355237227598
C 4.426157201845955 -0.6518198334235384 0.1819002341887577
C 5.544601626180919 -1.0944725475230856 0.19445986434755147
C 6.881924260434412 -1.600213361247432 0.22061616387517147
C 7.893840833254472 -0.7754194690026656 0.15087611978971796
C 1.9572862480675495 -0.7611263383277788 0.3465513061318615
H -7.610716181348617 2.4851285343801597 -0.31535901811913253
H -8.602850849565387 0.855779555685541 -0.5893478625404334
H -5.0525173236709415 0.0012696339924294555 -1.5818512620052643
H -5.549722686776312 -0.9072052487768935 1.4081090515993757
H -2.169090578396947 0.8150854346461837 1.5219306622648994
H -0.8325517528877628 -1.5101421345542043 1.172838869106128
H -1.6821093164443954 -1.018477056927823 -1.7307309449440709
H 0.39645398369188245 0.11014838302398902 -1.9409311902986681
H 0.9778291493126832 2.431125476602798 -0.055954723009626874
H 3.512590568180052 2.1261790907508167 -0.1651440120438108
H 7.052421300590471 -2.6598402788456967 0.297748315248536
H 8.89539619325527 -1.1633100451547984 0.17116938156467118
H 7.7205269881440275 0.2809823409043173 0.07398020633025419
H 1.8635788635056605 -1.8404528312981563 0.5082430356343612
