16

C 4.1001266771087375 -0.2056737703236497 -0.09682669338691363
C 2.851788715824618 -0.19021716149467432 0.27424272515932013
C 1.5877291423668873 -0.2640208875643111 0.525083986449672
C 0.3485882363930548 -0.08523190131067772 0.891984868725981
C -0.5349286273961551 0.8734859850814285 0.19761368692386763
C -1.2997557233645833 0.29807013623664375 -0.9030666565737069
C -2.4685332446730888 -0.21723176687280282 -0.5968692731926983
C -3.6232606895751673 -0.7087978450659213 -0.19559343343286112
H 4.3796953005241 -0.3708393262658839 -1.1202524532281526
H 4.865097253134868 -0.048570089718481424 0.6443842249965217
H -0.014017648113887969 -0.6623199298493639 1.7232106420363513
H 0.09461663458856334 1.7170114327456114 -0.1999041722034067
H -1.2218381932593483 1.3761238717849675 0.9390546565780342
H -1.0551687668257297 0.23017631682346637 -1.9268950515332741
H -4.422503665431099 -0.01738223478299621 -0.218860043228006
H -3.5876354013015335 -1.7245828294233752 0.09369874100502992
