16

C 2.9210935464515213 0.7753338756590369 -0.2244443360000687
C 2.0050726533034164 -0.15418832678090313 -0.007530396816872077
C 1.038489171988487 -1.0101816973559412 0.23485787445811535
C -0.20967859601029654 -0.4517562624633262 0.7269831077893089
C -0.6399470028744874 0.8603936715830711 0.14817155563203127
C -2.0804251755270133 0.3335686083783624 0.18096673098217947
C -1.465528752213052 -1.071693672478435 0.11720050062546843
H 3.532776032427475 0.9807052618603107 0.6117608821385244
H 2.9055400323170826 1.1757744982670337 -1.2013981213060743
H 1.2973861793007715 -2.0167479421449896 0.036895873174851344
H -0.32847850401387074 1.0940980294018774 -0.8679850666190244
H -0.5429319711060759 1.6642958663402714 0.8975945637672813
H -2.5556279037521925 0.4408694335896042 1.1808342335344095
H -2.6849301472673135 0.5849198705817645 -0.6884800222508911
H -1.9320378734443502 -1.8018858783026186 0.7939642993935151
H -1.2607716895801049 -1.4035053361350616 -0.9145546586263537
