20

C 2.7589907985284343 2.1134658602440806 0.3650063540376602
C 1.7989142637301274 1.301529428019527 -0.030774115542834133
C 0.8584294100602076 0.4657683222224978 -0.3482700863380186
C 0.4319433550298339 -0.4685507611559535 0.7059544871922476
C 1.2295565943442628 -1.6928766156472774 0.5884256573114691
C 0.41722079608261686 -2.6900211561350096 0.30828238863243684
C -0.9420808803095625 -2.18713082528904 0.22641506382871962
C -0.9498989851339856 -0.8900461591146557 0.4565412268798988
C -2.143995838423843 -0.059816670806619336 0.45387367791768496
C -2.145008001010447 0.9205970618529437 -0.4087496519647325
C -2.078137575986871 1.8847796016775489 -1.3061275359357236
H 2.4226503128149774 3.018351870836853 0.7916273481287668
H 3.7438297445737905 1.7453287135512965 0.2011309422834233
H 0.49725285236071404 0.5518358508548296 -1.348469035108418
H 2.3262477242713904 -1.7835918869727603 0.7106116237220355
H 0.7243703212608176 -3.735308004836263 0.1607853030040276
H -1.8345373029643421 -2.7643407291577895 0.01098372584721556
H -3.0048964940997482 -0.1393100307912283 1.0489930103870178
H -2.456875394851803 1.6245878818314605 -2.259381538703677
H -1.6539757002763638 2.78474824881556 -0.9474633407437576
