35

C 2.531467713788746 2.5335829035198083 -0.812470231497442
C 1.9694002902551264 1.3888771871341334 -1.122289237542632
C 1.3824780977754432 0.2243855653463837 -1.3147722074482615
C 0.8114440447904615 -0.4447436019961183 -0.1600595171626118
C 1.4742680766278742 -1.7879893486706024 0.0004969724946484774
C 2.5603972303714646 -1.910789397017837 0.6389730406282516
C 3.5682465454780607 -2.2235590163145456 1.4390625538449917
C 3.3320135933125576 -2.0809771646738167 2.8320345575625083
C 4.276127214133818 -2.373240558636002 3.722857155439451
C 0.7227605890767377 -2.8201067730095533 -0.6164818885916125
C -0.5229935457037543 -2.3024300270277425 -0.8300303588461606
C -0.552635534048602 -0.954260436703331 -0.34974949012220885
C -1.60472235308246 -0.27419747209733486 -0.1084451564760411
C -2.6580169645156455 0.5336211360424047 -0.013299029536057872
C -2.8499864446976675 1.4242477532298787 -1.1387146797755192
C -4.223465822766025 1.182509230414048 -1.7720059350475303
C -2.869244243076029 2.8309761786891228 -0.6359713874154838
C -3.7456830365286233 3.1783482136390977 0.32932987684088844
H 1.8798722379004154 3.3704947006408434 -0.8322192491871858
H 3.5686392698380285 2.472281853598978 -0.5802407686619526
H 1.4033020560552514 -0.08514471419723046 -2.3320658936398826
H 0.8870045671017941 0.14370836676422674 0.7539995342157936
H 4.393524335613387 -2.539723666525685 0.8819600742807019
H 2.4040754246725378 -1.7323172692466784 3.235116365471219
H 5.23084699991909 -2.724236796546955 3.360771955099327
H 4.154905123693363 -2.2876146211930726 4.7903781119452855
H 0.9621892503302139 -3.8339843937666953 -0.9106953881947712
H -1.3315047899889092 -2.837446563032866 -1.2844364316562407
H -3.169300980305611 0.3753039960521411 0.8839654660317263
H -4.687536605048344 2.1335825313348518 -2.050232138277002
H -4.056281838552591 0.6134998424727532 -2.717356100271921
H -4.819761717774134 0.5775395551472452 -1.0625239480199087
H -2.2149546635854187 3.595762810723863 -1.0066207198501407
H -3.7836356868074197 4.186675586393582 0.7115594713703554
H -4.423238434277764 2.44736440951884 0.7291330269316143
