29

C 6.868618470171442 0.4960862735379456 -0.2839160329186027
C 5.63786702233391 0.6503488060868514 0.15337801760037909
C 4.380907629241036 0.7879132444105537 0.49091242936904456
C 3.4107066404480255 0.6596043882726059 -0.5409511146739276
C 2.62566049801308 -0.3907839474987677 -0.4634656839428154
C 1.8209592817054865 -1.4036507741816504 -0.25229222874888474
C 0.6463297876832942 -1.1286963912373582 0.5794314655677738
C -0.4681010095135323 -1.97640154149243 0.09176661197800005
C -1.5757868150239402 -1.402908040055915 -0.34503398083884995
C -1.6617347528070319 0.0816884622476851 -0.33020919057747256
C -2.531188877527378 0.5084082191420611 0.7545313461097355
C -3.829579429300741 0.40407695893154605 0.5237916176358253
C -5.093580519068846 0.35646970966798586 0.16057669946166314
C -5.60870903206763 1.547882273820198 -0.5010332719942313
H 7.221885158825106 -0.5004634194396865 -0.25867800436529753
H 7.3367105273319275 1.3896720000222424 -0.6018198081192472
H 4.237874824967265 0.9852775754619242 1.530820958016947
H 3.2046654903719927 1.2733608996153696 -1.3755987193893806
H 2.130538761174298 -2.2947977883924717 -0.7143093548999915
H 0.34347765719547213 -0.08885990719453718 0.5342498358512898
H 0.8207378269122744 -1.377440449652802 1.6581105878265394
H -0.3407700856419661 -3.058455268152766 0.10760641939082473
H -2.4072928491175154 -2.0058718784989016 -0.7078974231433038
H -1.9872949205446793 0.4645443631679507 -1.3359419535830666
H -2.315447176389188 0.8946191542032784 1.710098269570509
H -5.56500568418152 -0.5554881972273051 0.40283251701826933
H -6.639131279571399 1.398467883186973 -0.9346149655078424
H -5.678936548270042 2.390360984720622 0.21930898976965058
H -4.984380597349324 1.8950364065288094 -1.3492347825240536
