31

C -2.6394739008399823 -4.914304358150334 1.4863021374476337
C -2.338508291099508 -4.032481747640456 0.5724136238152916
C -1.8431309520459322 -3.3302052601647834 -0.40352130458896623
C -1.5001632191138148 -2.666493682399025 -1.4674164657833009
C -0.283916270888026 -1.8219518014017273 -1.4103362068469085
C -0.4123727721549628 -0.6958562317489664 -0.4743157087676645
C 0.609292860440374 -0.39682717213299246 0.2773579633749941
C 1.7328948372552264 0.13540437011002895 0.7455545343754593
C 2.421241632309889 1.1028237070393563 -0.042672029086909105
C 3.4898045664433344 1.63072129841955 0.5244684713448777
C 4.598259829449068 2.0280350127137337 1.110783149148212
C 5.784222868737069 1.2227533507575563 0.8525787699792395
C -1.63144312554294 0.05698084745809283 -0.4001498467179787
C -1.7648268266666687 1.2125977028423964 -1.0162321327073796
C -2.9584330779034627 2.0157911672879107 -0.9820605001581839
C -3.2472246155184346 2.5801885920443897 0.15658284604727338
C -3.4665777574973506 3.111361661332156 1.3344320949191644
H -2.235781997965715 -4.9022343534402095 2.487756967630584
H -3.3303924707225225 -5.71167224461132 1.2500112809103252
H -2.1033449936598823 -2.7441123680962445 -2.3616257805173775
H 0.11862676057532279 -1.5604679547553693 -2.388746966469788
H 2.236676920303044 1.4811156417353804 -1.0068078756579106
H 4.468805598709389 2.8938174607670124 1.7004422726220154
H 5.609083344761821 0.13361714137308478 0.8304508575509062
H 6.555323927381579 1.4842965260590966 1.6287673470841297
H 6.2399251916532625 1.5970084298740503 -0.11126083846996646
H -2.463224733429408 -0.3172183419881738 0.16684818963724748
H -0.921476996793779 1.61084322280988 -1.6020567654137579
H -3.6420841028704967 2.21422581117316 -1.7615626159325306
H -4.053099853676942 2.519069587635079 1.9870723112784636
H -3.0286823796292066 4.063173985097606 1.4818220730122533
