24

C 5.399164520776501 1.502163078270809 0.900545271467159
C 4.686997889276566 0.7034490380004399 0.12418980616941652
C 3.927687018455781 -0.09096692323700586 -0.5906309886384624
C 2.6710126111949037 -0.4943963538171401 0.02351070081334825
C 1.8854924455574384 -1.4061914058265728 -0.8190024930846428
C 0.8013174044502785 -1.9670937536188484 -0.37594782072830873
C -0.43133062235033737 -2.2775132382961982 0.0036927581258331937
C -1.471155604417563 -1.2239426280794214 -0.1780199294625329
C -2.633979791706701 -1.6039218357610456 0.6524736262446006
C -3.7705754254994424 -0.9640186484607767 0.49498409290053746
C -3.8641454163921836 0.08838020996583007 -0.47612110546777414
C -4.008439241611535 1.3040037887584774 -0.0009358234346881218
C -4.150960617425195 2.4879803444247712 0.559864850094671
H 6.068044665746162 0.9971733992438708 1.5438552006271984
H 5.1962360426500025 2.5302141545668233 0.7663685148267916
H 4.327294303212292 -0.3427087083147975 -1.5353333739109027
H 2.823460943358218 -0.8507484122013915 1.0545522531813345
H 2.1962864629726675 -1.6171730357448073 -1.8146985131681126
H -1.1012037667565768 -0.23677856864979865 0.22518097290100633
H -1.7211395848579036 -1.0568616936648831 -1.2317882645264169
H -4.596825813427926 -1.280098137453857 1.1292473833227379
H -3.834665991422912 0.037801637284760936 -1.5317387693039548
H -3.2418308812379917 2.9860104344883194 0.768107014668584
H -5.156741550544831 2.7752372581223352 0.7245190883336814
