33

C -6.752416310695773 1.008400949215949 0.9658258397383843
C -6.274188966296518 0.9056478412516512 -0.25580884586206204
C -5.724499775041535 0.7820209472426236 -1.430757871599175
C -4.341599405217756 0.3866316750213307 -1.4520119330680872
C -4.05538270413987 -0.8733949480818127 -1.7286049988746348
C -2.742042958283228 -1.4287106660116724 -1.7903231527358514
C -1.9712960005071043 -1.2022129648820536 -0.7460240132663829
C -1.2477323265809768 -0.8362099029061556 0.2797930162364732
C -0.5319186941341885 0.42183146813277483 0.1612354874293998
C 0.9349501216371543 0.12181940123301913 0.34866535242048136
C 1.74773962543937 0.5983789057421103 1.2729467337261442
C 3.0740094512268006 0.0455974638789546 1.0831006085002006
C 4.145257948153855 0.29901987096507926 1.823091330966932
C 5.413356902560747 -0.2995186468920529 1.552224521119036
C 5.98871200970871 0.042109311498192865 0.4148875230219642
C 6.488053577317993 0.4377330009067743 -0.7310981829027924
C 2.9927650250079068 -0.8275961599642216 -0.06297342599498026
C 1.739109191415718 -0.7707271281580995 -0.4778449074510787
H -6.647608591794413 1.9668580921375458 1.401759871240315
H -7.177538268660722 0.11632145783254032 1.348562060119419
H -6.365826215084372 0.9890203833332998 -2.2430845888739928
H -3.5166225313183657 1.048552226338772 -1.2572768024932033
H -2.2677070001714656 -1.9998611436377969 -2.5412397556145323
H -1.2789897353068151 -1.5170092022257542 1.080204349029598
H -0.8134951686596746 1.097066846011202 0.9931938345997853
H -0.7029211456127281 0.9511571740914454 -0.7746258544176539
H 1.4395920862386633 1.3021877124254402 2.0514222848806813
H 4.066805888309164 0.9835157461766502 2.6662421268566283
H 5.976624269630968 -0.9833683642531797 2.123411227947941
H 6.214114706780905 -0.16389112412252754 -1.562918559069456
H 7.095720016981706 1.3023264846419642 -0.6765924103335613
H 3.7698642057861296 -1.4144740113844603 -0.5098648411871909
H 1.3251107713092667 -1.3087544220403073 -1.3255160240884112
