39

C 6.554506509190338 1.1297094169914137 -0.7096942970870614
C 5.540108261889321 1.9303069471323733 -0.4616625940234702
C 4.4869471898160445 2.67669905034049 -0.27161309938629913
C 3.307550488358349 2.319280395184512 -1.0064092038086887
C 2.532047443867422 1.3295963740467656 -0.617461633494559
C 2.8934201358749125 0.5778093662245134 0.6030224792629995
C 3.1082099595878865 -0.8800866683112167 0.2737238574601605
C 1.8894183623374528 -1.4528592408093386 -0.28627921719222155
C 0.7732934286182979 -1.1935043965519732 0.36203089259641913
C -0.2632260757996005 -0.945942848012183 1.1332638859841513
C -0.4961720934300829 -1.895894473972779 2.179129990958752
C -1.485440750593834 -2.7569404245191693 2.1746863225091713
C -2.430869229927792 -2.780925772153675 1.0511174291409535
C -1.7761335709088346 -2.7353673717788003 -0.27200953865742183
C -2.3081935425323983 -1.7101978462689271 -0.9581731739771652
C -3.3125723675481895 -1.0382796974112924 -0.1569365284847717
C -4.0643366147069475 0.10198262249984082 -0.6147137391934422
C -4.711187308896813 1.0473435949045162 -0.9907836485699163
C -5.476952114002399 2.2020796968859897 -1.4324625201423091
C -6.722893341802707 2.296080329625186 -1.0131137320395356
C -3.3789948744213527 -1.6663102402920182 1.011863377197494
H 7.169638025333906 1.4359825946403857 -1.5148435384726595
H 6.617319360130593 0.2885252364828545 -0.07169240545176352
H 4.6282268847646915 3.4705645183342764 0.4128439846189333
H 3.0759792676940623 2.8939925110037654 -1.8959458918502436
H 1.6625822001639599 1.0917254213388365 -1.1887570077959293
H 3.800057056296792 0.9965153074177387 1.0870823422795588
H 2.090357458138714 0.6327770579027086 1.3876070163754555
H 3.3360674997370383 -1.405621420634189 1.2295305902443046
H 1.7446241106073654 -2.0536371910666853 -1.1396300835435
H -0.7857269088969786 -0.06788263591900204 0.8733610045231084
H 0.22420960616145502 -1.8659976807909295 3.019023036700612
H -1.5786497526798908 -3.434960643978121 3.0105430810728584
H -1.0163920487951954 -3.41180511052259 -0.597952930821695
H -1.990258462468664 -1.4714367305148648 -1.9610145810047919
H -5.046999278417615 2.950114180938479 -2.0748053881625514
H -7.206223543071534 1.5789642448964176 -0.3699384458007416
H -7.304943286820349 3.145174295027658 -1.330619270761557
H -4.078398082849036 -1.327572768311171 1.7850515059693826
