28

C 5.1673529629995825 0.014110476711108516 0.4780162504756849
C 3.9067377188818226 0.2639768632555965 0.29450296032926254
C 2.6513883579986413 0.6062276343551672 0.34966535155941203
C 1.4044223026764364 0.895184504460396 0.10337200836369681
C 1.0504119971060235 2.2783323597839282 -0.19886650059275918
C -0.10830582671529349 2.864171621779905 -0.08355401566948707
C -1.4129810238972653 2.4231176599043533 0.35500092326373306
C -1.719718388290948 0.9862691015822931 0.1476210681395343
C -2.9412060641929654 0.5760623459617961 -0.11226651721815131
C -2.9669000533113032 -0.9009993579713472 -0.274465109332764
C -1.6407443948843607 -1.3907413639545019 0.25655506455927973
C -1.0023228417838654 -2.433827415917261 -0.5608873616518919
C 0.31907810348407994 -2.5118282167066166 -0.5805315316166425
C 1.2007577612965696 -1.5689080697405857 0.20548122269054198
C 0.5001131768990644 -0.26430821815510663 0.16920396306248353
C -0.8095929317703296 -0.173324662198925 0.1858177926060405
H 5.498054920552306 -1.0119500646702742 0.3551845872454053
H 5.9118479040784875 0.7347779142131446 0.7409369001643852
H -0.07254487007719725 3.922583873174275 -0.3890336271168133
H -1.4754223551063665 2.5656256197933116 1.4775871875240767
H -2.232947352997958 3.0436420143150995 -0.10189208319278747
H -3.8528973081226443 1.1715324522835677 -0.2100063936699519
H -3.063588654785702 -1.1932138924052373 -1.3416658327542497
H -3.809472475484618 -1.3029881064145592 0.3233756262681822
H -1.8242272806539024 -1.7196885519262932 1.3045370173181265
H -1.632251733126166 -3.1151385564086063 -1.1289186930592068
H 0.7807352508003965 -3.2957669631647954 -1.195141885375803
H 2.1742230984261397 -1.462931001942357 -0.3037102541219043
