23

C 5.738799579824883 0.974392442384783 -1.02483049215345
C 4.595030046103752 0.5248574743751181 -0.5898986049950162
C 3.550629186614635 0.07141013181513767 0.040456047610611924
C 2.4150774233238312 -0.1337918271977808 0.6440219090440876
C 1.6065910950523412 -1.245444766464341 0.2603326989441525
C 0.7448522378518454 -1.0355314872845416 -0.6987080278603269
C -0.16460939435349822 -0.6898859482758344 -1.5882000642030307
C -1.4184179349453683 -0.17719723112174565 -1.0666245369750964
C -1.7368061990969943 -0.7611250877678507 0.2385212246119634
C -2.8769137873626964 -0.4046136414887276 0.8304977375978202
C -3.789074921525129 0.5391831522297689 0.20582681800749003
C -4.912039014012828 0.8879012605254348 0.7929289160227572
H 6.019519900344344 0.8060090856138616 -2.034730924662727
H 6.415627654599924 1.5177189659545 -0.3835680927350302
H 2.0688929205523245 0.5361809488307334 1.4451265556424249
H 1.5856972130767655 -2.2345182651187603 0.6311888895768993
H 0.15598328591821975 -0.837441065690134 -2.581897555046995
H -1.5041207467708195 0.9271966282298343 -1.0678076284219504
H -1.069279347149131 -1.4597336109898902 0.7088283146583665
H -3.152834851093632 -0.8122586322330306 1.7974933625007021
H -3.5208558610317877 0.9510700894616327 -0.7601728354815024
H -5.161889435955232 0.4707540181096675 1.7486238717063738
H -5.589859049965816 1.5848673661021746 0.33597462328550337
