16

C -2.4676780868839248 -1.2043824167846766 -0.19552794094343837
C -1.5636493043019415 -0.2944989761607723 -0.04625055346302775
C -0.6780510581409873 0.644662672649499 0.022744891500988688
C -1.077210368070498 2.021997391543784 -0.19019255406199545
C 0.6471148462722144 0.3146990039032657 0.3006498381266397
C 1.3535628429948916 -0.7183648999857593 -0.013383003025919653
C 2.765398011139777 -0.826945177809345 0.41372117496747274
H -3.016023280553039 -1.4846086802797587 0.6437582572535174
H -2.6396576785669588 -1.6399609269527862 -1.1247703241325395
H -1.962387145684462 2.0232889960230014 -0.8934301549969633
H -1.3480972419871606 2.5725456556914534 0.7345018122114061
H -0.31591191660698786 2.6367350927473625 -0.7288886291190703
H 0.9330774385013488 -1.5162344491130673 -0.5882354531715852
H 2.848861463207523 -0.27617171151282593 1.3825053101030254
H 3.4624093158005906 -0.374828384468763 -0.35073945431644066
H 3.058242162879538 -1.877933189490648 0.6335367830679708
