17

C -3.3212771762450553 -0.5164895944784151 0.5363643246513654
C -2.5263066310713667 0.5053383675720629 0.443058464619985
C -1.618141485034032 1.4366880462734384 0.2288102736105386
C -0.5688984053268078 1.0765646302229859 -0.7710683501746408
C 0.5385075524157488 0.382745598554713 0.022011265753789467
C 1.641120846948693 -0.011563937311489003 -0.9360719392885414
C 2.747627543613784 -0.7004058463496614 -0.16731059390613268
H -4.15780755707571 -0.6164407221681861 -0.11767761432605313
H -3.1222938687745225 -1.2578251109423535 1.2776793343977964
H -0.18522200189064528 2.033102386344919 -1.1708397149075165
H -0.9329014593307869 0.401147573221641 -1.5519624816004591
H 0.9060912385331643 1.041014385028791 0.8237629435928332
H 0.16256535080115475 -0.5473673185274507 0.4914073806980219
H 1.269958144163645 -0.6895322335992856 -1.7263647883354636
H 3.5012970007733775 -1.0842895214529251 -0.8981718097349034
H 3.2780003183773516 0.08464538227834296 0.424935426142412
H 2.387680589121721 -1.5373320846671965 0.44340870447916153
