42

C 6.953595938851789 0.24889986996784697 -0.8632524008013106
C 5.902611063346763 -0.499522834835004 -0.5874817645896525
C 4.827572475336011 -1.1774685677286048 -0.25146715322562946
C 3.9704240197006677 -0.5717979380485774 0.7173735333451033
C 3.3224945036386178 0.5639585781767563 0.5329635227432555
C 2.4445325187251816 1.1582768287128045 1.560552885244283
C 1.0390514603481027 1.3039496956067655 1.0694237432272475
C 0.48598209188953345 -0.02254907359441073 0.7053782108389187
C -0.8041929077357689 -0.15922755430743574 0.3819887222481897
C -1.6441067323333622 0.9378773215805682 0.382327183588358
C -2.97461454596757 0.7819163897171333 0.046154692895708
C -3.844422095695604 1.9762049305082794 0.05683657533764895
C -3.1851784990084733 3.0617861829449473 -0.6850064974983652
C -3.9802203283745206 3.4291463898785164 -1.668932940501811
C -5.183637823205464 2.6157592858136014 -1.6238072693104908
C -5.121662523156408 1.7670003539861023 -0.6281645483681523
C -3.4605310971315415 -0.4476282277636591 -0.28509178070289776
C -2.6076417393758815 -1.5546600130382953 -0.28418705531896904
C -1.2813232003968307 -1.4242072898890594 0.04648043810551957
C -0.46456128539391006 -2.441077938047232 0.05502840946985341
C -0.8204527136211687 -3.8125466793348446 -0.2713094656013438
C 0.093263720257994 -4.779019796245149 -0.23131115586011652
H 6.805821864868619 0.927480976633585 -1.6598796534465574
H 7.792145762995162 0.0631542696306303 -0.24775010557624672
H 4.731895946458345 -2.1035798347321815 -0.7510031774694677
H 3.8359857940730206 -1.0712652128059923 1.6732568605157767
H 3.4363458742766 1.082924288450118 -0.4063008845447901
H 2.4298228800977584 0.6005081458931206 2.498690458200543
H 2.853720857236668 2.1755946779525055 1.8070263494111607
H 0.412747160902068 1.7276236401233036 1.8861620480365944
H 0.9619624327312969 1.9750037847235467 0.17857024487253967
H -1.2485647032267655 1.906449680933227 0.6462232406669678
H -2.2038980889413944 3.4710683731173257 -0.4372545825056787
H -3.7388667749523314 4.224414515478159 -2.386290551729292
H -6.019218814818675 2.69655629129756 -2.315841647221505
H -5.90379983357973 1.0522086272224103 -0.390267969072579
H -4.484208224495659 -0.5994799475244411 -0.5494087922661397
H -3.0107920183731167 -2.5208483700214854 -0.5494229180166242
H 0.593387377580662 -2.2306168639868007 0.33768329975509265
H -1.819716356633896 -4.055206964646764 -0.5461071039230484
H -0.1920737140899009 -5.77736741081707 -0.4749541568467073
H 1.1003202771929665 -4.499692580981906 0.05182209938589244
