19

C -1.9981686858203307 2.4582666270171134 0.549948286196373
C -1.6042622757890384 1.252101635022186 0.28740345001761197
C -1.1751545835484212 0.15364005679640572 -0.2523448228998467
C -2.062756010138466 -0.9625471463864516 -0.25940312469449894
C 0.15477266829144637 0.05147089202764106 -0.8332762948967708
C 0.8409835644712926 -1.183850314218406 -0.3749011509866632
C 2.08987675432804 -1.1509120939731865 0.04157579925757965
C 2.8314996117633697 0.12972540886798956 0.05794264035422351
H -1.82799395325537 2.7638388445868256 1.5336511940681674
H -2.4511871631890916 3.1025217249442374 -0.13745440214991658
H -1.6601021049307196 -1.7512721874709416 0.4432614534367696
H -2.17818168641937 -1.4973108004532987 -1.2264752283794984
H -3.0965242995885878 -0.7816464694493885 0.1009022672208255
H 0.20321873425242384 0.2076918271654238 -1.9157585363152836
H 0.3014726003980669 -2.1372469624762824 -0.38285041212396326
H 2.5908828537869817 -2.0457912662051285 0.3749210310101968
H 2.1725245668212474 0.9992390373678283 0.26725247045570555
H 3.2877718369384183 0.29989727722068593 -0.9480933269865582
H 3.5813275716278525 0.09218390961662093 0.8480698029521766
