21

C -1.8978114791069793 -3.0512832145554483 0.09893128511235386
C -1.6460395879433878 -1.8563509425725888 -0.353842045411476
C -1.3148430361779537 -0.6451936285194401 -0.7455428650856702
C -0.14684050386875555 -0.05161831024576749 -0.1075658707852166
C -0.541035720618432 0.9690477112753755 0.8593862887699824
C -0.9656780781091292 2.1080761374860932 0.3673977600320109
C -1.3775838436608674 3.2135607821698224 -0.21551673065425012
C 0.8717367745424394 0.4333198592135519 -1.0821119250081819
C 2.136934494923658 0.11909871065636585 -0.9865943974218816
C 2.651160773106303 -0.7614239927948573 0.12490466175066751
H -2.5462140141318765 -3.099263538788935 0.937339067688816
H -1.414394936935283 -3.8489694796517684 -0.4340337934985745
H -1.9542285367645345 -0.2518338082307596 -1.4892010268976268
H -0.5361093338521868 0.9288105568267611 1.913881472888212
H -0.6123853449919194 3.9210481686545715 -0.4009750491789138
H -2.414527660076632 3.2417196824137715 -0.4184795806654936
H 0.5303357295122663 1.0616420767651007 -1.8823694215597893
H 2.839343822167766 0.49658548538901115 -1.7200121863524651
H 1.8492340711388284 -0.999678362162195 0.8230807289205441
H 3.438559393607433 -0.21606728494336666 0.681370035375491
H 3.0503870172395207 -1.7112266083862968 -0.3180515438858267
