35

C 5.58887485338846 -2.029124554548409 0.15713829912985156
C 4.68836338642982 -1.0702936546735358 0.18698340320900544
C 3.721305566097176 -0.19166949407444703 0.18216773475713097
C 2.3678113453701877 -0.7019458207026327 -0.06536845144759687
C 1.313481580508342 0.3285988691704786 0.15789146937286286
C 1.1230493788153761 0.772120585913413 1.3772741776578077
C 0.14097902768497741 1.7665792144622523 1.773110290915952
C -0.9603274263984352 1.9857956682757891 0.7957144079931769
C -1.921930781721632 0.8969720266092605 0.8316754263701914
C -2.1790664520986884 -0.10793174407392005 0.0800876614595339
C -3.3146216804693447 -0.9684104276413272 0.5344117893470685
C -4.457592479314576 -0.39716561415658874 0.7727578396917217
C -5.521046178752819 0.36091634569140757 0.9567660990466
C -1.4440650340577805 -0.6114791619227169 -1.0236102149971031
C -0.3128717653503306 -0.254148231362529 -1.5712117047390954
C 0.13718178445300336 -1.0676820888712766 -2.779500606306845
C 0.5930914212903614 0.7938440153368855 -1.0664688935384097
H 6.007828896923467 -2.213822263601465 -0.7944002604953991
H 5.768680796640458 -2.4843550162675223 1.0933479824388557
H 4.032536819662236 0.8012001585904862 0.36024349274296147
H 2.2591230550351806 -1.2478621550962847 -1.0032221586079129
H 1.76779334224936 0.3482606439673285 2.156886219672813
H -0.2590895050410897 1.4642377204386199 2.782156140782537
H 0.5941281605557499 2.7694805809190397 1.961237760697888
H -1.566303705305727 2.9228378320060053 1.1367450386338056
H -0.6963335039045039 2.2769081198024965 -0.2177936467880597
H -2.6122423799390817 0.9579704451250116 1.7736619802855105
H -3.283706398670795 -1.999161773639111 0.6827924707280573
H -6.139369329943444 0.46494849724793746 0.10971696353104772
H -5.601666923606228 0.761354651460297 1.9395188390350335
H -1.9349041211838849 -1.497650988308238 -1.5354180419686838
H 0.248047739162909 -2.1226257120109886 -2.4104465986627694
H -0.6325502475769668 -1.0097973370264166 -3.554669807185137
H 1.1275400034057848 -0.7184129533303497 -3.11475007637238
H 1.3578707556415415 1.0215136162832028 -1.8213729222295691
