44

C 6.980759932998441 -2.2792521785847772 -0.29890682394691553
C 6.234676132213879 -1.257740332799351 0.027981613700459658
C 5.6313179044183155 -0.22358719529297727 0.5176784051798918
C 5.064607823961247 0.9431924001419787 0.634337962988763
C 4.161712668176464 1.5230120501974902 -0.31560883045977867
C 4.416824313179906 2.1282861034165177 -1.6032800451879914
C 2.9168938505939743 1.4724307703882011 0.08509489254164315
C 1.634797750158203 1.313704754878921 0.328145856174742
C 1.0183772787420182 0.11651233688180412 -0.15127232258470794
C -0.2681272437730644 -0.20193960759716306 0.10298901180820298
C -1.3353399181082375 0.47156911921905575 0.8499785451155497
C -2.6032087820658067 0.26982761549757145 0.5250945421368124
C -3.891518669097643 0.7311288349947749 0.9901354263187203
C -4.1696138175850725 1.4194811234448694 2.0430646472574345
C -3.3374647709949468 1.9273416087985842 3.0535013370400748
C -3.8950920548107657 2.637642583432959 4.067847315027471
C -4.9359954640179495 0.21504066301597724 0.0040271134672408854
C -4.189935673806755 -0.7632001070850132 -0.8220482765254997
C -4.569232103912252 -1.6147477406821202 -1.8577611999262391
C -3.632548924910757 -2.4044292538142664 -2.4883485561077836
C -2.303928316708978 -2.3836544930934527 -2.122739508106195
C -1.8996489227268145 -1.5346180297719332 -1.0792987873501305
C -2.880126259583279 -0.7526549740061126 -0.47246277788583957
C -0.584845086167637 -1.4756747428100445 -0.5385073664781944
C 0.5891740072738217 -1.896403399661717 -1.2126637201388981
C 1.5317807851421057 -0.9605406717811349 -0.9801038205920686
H 7.391425894657433 -2.9464874947583874 0.44014474816796584
H 7.172766770031434 -2.4321281484035984 -1.3462034113229868
H 5.303330611834127 1.5153454952482295 1.5297015007331884
H 5.44206511270478 1.830084532522711 -1.971670985442981
H 3.7167426335230735 1.8388447393090097 -2.412541639610153
H 4.442923451071697 3.2474906030766384 -1.6039362560683743
H 1.230302918551675 2.1198622793704227 0.8598208174483222
H -1.0457674239528454 1.1293159638367072 1.6418999298148682
H -5.2670805147275335 1.6434169831358092 2.149839791628007
H -2.2962848487600054 1.818787260537488 3.139895677608685
H -4.963486029584675 2.8012882854178525 4.083760875956335
H -3.313830233602428 3.053582415530739 4.872148085298435
H -5.775015944599181 -0.24623469974498075 0.5352847090290545
H -5.614690463968034 -1.618703840480383 -2.129797248743752
H -3.924518905246831 -3.070492416194426 -3.299282168006668
H -1.5438814526580722 -3.0003167797897836 -2.608878331245529
H 0.8006741162303005 -2.7607090891953785 -1.8131808427594538
H 2.5600278699050336 -0.9816742421671566 -1.3538798859513759
