47

C -5.231204168480676 3.681999161925203 -0.5000218570916681
C -4.366997192656618 2.8350474761416176 -1.0080624387069548
C -3.4692794301667487 1.9918797813198417 -1.4274724017365703
C -2.6012557686545223 1.3984875805280974 -0.3932492071468843
C -1.3416252461667166 0.8240795572149138 -0.9271586332923372
C -0.9761108971272419 -0.2699283681082697 0.08253207203633667
C 0.3470523532675801 -0.891254902436733 -0.027425030564456863
C 0.9786187073690598 -2.038489256348077 0.487102387617439
C 0.6586231552248966 -2.9877680633581374 1.284498168215132
C 1.1932140423797435 -0.22285352333892902 -0.9176479051488197
C 2.55275503309337 -0.7556529144432537 -1.108297472092131
C 3.614034867113824 0.18646211549631683 -0.6755692999315337
C 3.545755199208767 1.5024877514918702 -0.6250522906675157
C 4.824012174988207 2.057961584651453 -0.13682250230194265
C 5.65816651317052 0.8610930066735756 0.0930183962575184
C 7.061809846127384 0.892365297435098 0.5961911266726816
C 4.944046939076675 -0.20044361005130995 -0.22249612081331072
C -2.0182708936084754 -0.51759116966326 0.7750061039504971
C -2.19900262067017 -1.4794663437428004 1.9048253114144842
C -2.99358562461284 -2.6818803168565126 1.5914773894877825
C -3.247903583370778 0.2730363960697551 0.3067795320623779
C -3.997478463110591 -0.6648150076521095 -0.6070873335523187
H -6.157796384341007 3.252727180856413 -0.2269703743447745
H -4.8875351673222145 4.6800286406307965 -0.4298023030596879
H -3.462108803563252 1.8253520381747759 -2.4683618358264443
H -2.3146941813491453 2.241551813109905 0.29353761411992896
H -1.5097070796453542 0.32445156010604936 -1.8901820143583057
H -0.5425093880582172 1.6013119849005513 -0.9667726771247226
H 2.0814400695531177 -2.1842998447676054 0.10197751498096493
H -0.21114830788945796 -3.2282814806800153 1.8318099192875366
H 1.4717225891620402 -3.7883347010848087 1.4829648450848707
H 0.8612876488936636 0.6268557573687077 -1.4430827898040417
H 2.769964179516992 -1.0311902548882017 -2.170510453964282
H 2.645001080918602 2.0564089022178105 -0.9152858601053984
H 5.286175909000582 2.608439888283524 -0.9984672270481156
H 7.3661365492110304 -0.10429001489201 0.9569369216114572
H 7.760766447774496 1.2606989982546122 -0.17965671261730146
H 7.0932379642008625 1.5794388143177522 1.4732473272690099
H 5.345610744176809 -1.2226864521801992 -0.13723804403761158
H -1.3202037193731375 -1.5253629188210631 2.5087333867022226
H -2.925674814612304 -0.893540779118171 2.651047138097564
H -4.0683748747577315 -2.654224315418715 1.882730766655452
H -2.9837821852263593 -2.9451293984000406 0.4941341229687517
H -2.5657814186967682 -3.580196174862219 2.0911552838276606
H -4.664459707845692 -0.12121589106121239 -1.308273626999781
H -3.331994713914169 -1.298511705069227 -1.2062212385126205
H -4.670947378207287 -1.2747578799267372 0.027482322530075824
