27

C -3.687535940409817 3.431540188473194 0.19382068421233417
C -3.2990277438828395 2.21859095746205 -0.0857666974139581
C -2.812634918516325 1.0398599408518783 -0.2481440917165231
C -2.3493667342331954 -0.2006115584318643 -0.11961741768409775
C -3.2870905311642358 -1.3355740029971046 -0.0433658728908717
C -2.625978366033323 -2.642986429345825 0.09731020746341286
C -1.3322968893203293 -2.81842969810459 0.15276111435408432
C -0.4234681127658469 -1.6869904180297253 0.07596815986012367
C -0.8981771071480866 -0.46731252839186316 -0.050960448288636565
C -0.010173347315339152 0.6819523618719391 -0.13002945887064493
C 1.2761593427992604 0.7508259607267622 -0.09734097794790042
C 2.227976554949062 -0.3673653981197215 0.03470468284617853
C 3.371726574920058 -0.2912557462274806 -0.877142787287046
C 4.49567879177715 0.13559207313599222 -0.3697865413358544
C 5.582027604442513 0.5734376590673862 0.22271010844857472
H -4.740436081548101 3.6615828149258958 0.3093846680433913
H -3.0092116878405615 4.26365628638559 0.3252812748376809
H -3.878677576795867 -1.3592022768682681 -0.9855076233037875
H -3.2726229671044713 -3.5190211666695213 0.1584989410112894
H -0.950658966084055 -3.848357340187188 0.2593601155446353
H 0.6225953854762499 -1.9425346746425896 0.13129624604596546
H -0.5202476564652379 1.6771163353767666 -0.23731178263394043
H 1.7276807779512264 1.7722378484203578 -0.17786162671746047
H 2.4816893346124775 -0.6332156694392699 1.061551966485478
H 3.4172502820660577 -0.5365599386362078 -1.9033410303599476
H 6.188218587765053 -0.18133001425392808 0.6487589791092572
H 5.706601389868306 1.6243544336473552 0.19611890189378414
