37

C 1.7956399606882791 -2.5068076801207058 -1.1880998702751335
C 0.7756511555951554 -1.8877941532790787 -0.6079437561038664
C -0.2752479311361397 -1.2308317492265224 -0.2248477070654662
C -1.4406830723282162 -1.55781786301258 -0.8683435665751144
C -2.5741633158615014 -0.8587242647867307 -0.4936635543218569
C -2.5169419348197106 0.11496215542683699 0.4799662773636419
C -3.7489698314619795 0.8526530608158857 0.8648505756182072
C -4.916808339637873 -0.029924398201161634 0.6719828193259145
C -5.749305005531767 0.4965179421244091 -0.23533048879572888
C -5.180934331213235 1.7530701850567454 -0.6923969804361373
C -4.035207317558833 1.9692430228039925 -0.07036698424387498
C -1.3123593747491327 0.38485851695424844 1.0786987515978341
C -0.12246648825859305 -0.30584930948358574 0.7284038199670849
C 0.9650689082949709 0.012462818199400828 1.3755918063509418
C 2.3250501293549357 -0.5114407548637716 1.2854189927490063
C 3.1770447466236833 0.21673762028314164 0.26362502790918063
C 3.2544206909291624 1.6510051548597138 0.6808126711845219
C 4.121437889743305 2.490725225216997 0.1472579924983653
C 5.078715489965962 2.078950205397473 -0.8996653266446926
H 2.1526061402573253 -2.062295348616748 -2.0650759240587613
H 2.075579521483667 -3.3649699655371808 -0.6388993662791873
H -1.4964986865095602 -2.3088203234300617 -1.6213722985815437
H -3.5273188649222473 -1.0524397580672369 -0.9474429184914984
H -5.153580792935567 -0.9848165058982852 1.1497997266995508
H -6.68821167560739 0.07543786772904082 -0.5825820686323069
H -5.670726665360136 2.388351286268894 -1.4430749940714795
H -3.399842391850474 2.8110296707200932 -0.2063364525821423
H -1.2522986117906867 1.1503047463548821 1.849380778454493
H 0.8751845320559922 0.8409113270607521 2.1411011600512784
H 2.418249849123754 -1.59901841937233 1.226420364744459
H 2.8387301962399176 -0.22502144112873568 2.293471053400219
H 2.8519425849858515 0.09833781822590887 -0.7641232405623367
H 4.207478270896969 -0.1851671371608197 0.3514646460468627
H 4.120130751349128 3.515377499019627 0.498845013836197
H 5.44071222255803 2.9393184687286475 -1.5003231949078342
H 4.612301251443169 1.3779113985819815 -1.6291180486882595
H 5.975620339944749 1.6263106977014279 -0.4080847364806677
