39

C 2.6895530661033265 -3.4181757120835417 -1.4889204589115914
C 2.5111029578986592 -2.1370205418306525 -1.7571312937067862
C 2.315578063922478 -0.8617713325305101 -1.9444297756514946
C 1.8927834469559597 -0.10961090663876487 -0.7770060238373093
C 2.798094299459274 0.8487988264078066 -0.20808685506323576
C 4.0178795632900774 1.051809122079142 -0.7526036681883043
C 0.7071057482048964 -0.33844150797478273 -0.28735933518601653
C 0.1090954036886508 0.3200347721989539 0.8800867600956951
C -0.45384433812902353 -0.7810423349471345 1.776168189098529
C -1.7977389849245453 -1.064948463891019 1.2142264744641396
C -2.536839373648229 -2.2782820414494194 1.4225938146516732
C -1.974283531897244 -3.381807324512761 0.9892329132965725
C -1.3379387395167788 -4.4386263190232675 0.5283021199725982
C -2.1763600651013157 -0.019614704409852444 0.5051808719243357
C -1.1617212189467587 1.034047092803345 0.5192968407156588
C -1.3461026629974697 2.321009917041591 0.2710657420961132
C -0.24668636261347138 3.3092095340865146 0.3180150563810023
C -2.689684245693798 2.788083824926862 -0.0641566018335945
C -2.9498108889634294 4.048691928302039 -0.3239595598849767
H 1.8270711790336807 -4.015353849727438 -1.6214501496173555
H 3.6696069566769496 -3.6667482698016634 -1.1786447606760908
H 2.486394096263673 -0.5175929544057731 -2.924271692104066
H 2.519191309747701 1.4138997283868062 0.6563224406537821
H 4.683770750998944 1.7775866821676858 -0.3090429882462818
H 4.282032184250934 0.4714588470191595 -1.622608216305263
H 0.04369342119904718 -1.1006144633191026 -0.7675249207180308
H 0.807385790150632 0.946276746935243 1.4478575034557986
H 0.14592529632762336 -1.7019276929392866 1.7403686010218569
H -0.5378431874146369 -0.43962447951130323 2.81692402556361
H -3.47913032093944 -2.421733257979841 1.878492922325916
H -0.6965471721099278 -4.905545752063187 1.2255132872135928
H -1.5581504624439526 -4.674222974401262 -0.48248470718298375
H -3.1377761829787487 0.04679539730995112 -0.029146600049236006
H 0.07648896025971581 3.5640526110312165 -0.7097527452313064
H -0.5566127388835059 4.25456143889296 0.8441683470403011
H 0.6614367433728544 2.883674197789836 0.8335906556708889
H -3.5055966560583776 2.076119950791678 -0.10190416847283182
H -2.1522771063835484 4.763529936063299 -0.29034393153204485
H -3.9492449981763764 4.353064329138669 -0.5660614854777855
