35

C -6.760466842236633 1.3053152058758704 0.8231484944455031
C -6.424799724699298 0.04434463211876073 0.8572502189388588
C -5.766201811455259 -1.1010971429247252 0.764947294766954
C -4.3635859357341 -1.1066104118304705 0.2971973730193964
C -4.1059627683754165 0.015388553024953957 -0.6895872088451633
C -2.716424393788154 0.022758044660917638 -1.1634197113814542
C -1.6731282447910687 -0.004550345124655914 -0.34965431194075725
C -0.3030434241242261 0.002478985560026762 -0.8088724386646111
C 0.060486262184902606 0.03658081187042716 -2.07884845811632
C 1.496929602582193 0.032900008874404106 -2.22064448011996
C 2.0007939826998586 -0.003810709215932669 -1.0210039430042126
C 3.433368437273882 -0.02304108557180682 -0.7075036670653184
C 3.986337048060702 -0.4941514386730692 0.4185561417258273
C 5.418313611993144 -0.3816786129331317 0.44697559342040427
C 5.892784356805472 0.8361835174272699 0.5336791886309132
C 6.3013405396315765 2.0903418331012573 0.6213873812460503
C 3.2786487631210126 -1.0827921146537738 1.5541170248244909
C 2.0596886307691396 -1.5301839900111787 1.6074787707726395
C 1.110306308237782 -1.2417758714784337 0.7981914604551357
C 0.8990889512240822 -0.013316632482440754 0.007267450594488726
H -6.593500864218546 1.9471568820489613 1.6660828487473351
H -7.20740948361033 1.7136595278246771 -0.05825710850963289
H -3.638129763789781 -1.006818668760792 1.1337875380676155
H -4.175733834340097 -2.1008917533605 -0.1520831063294281
H -4.799249375905048 -0.11732294035050396 -1.5432410477390242
H -4.301038632218141 0.9902727248864495 -0.20228059899967285
H -1.8921210933939414 -0.03382707331273321 0.7289831884797159
H -0.6266969756225654 0.06380452962956415 -2.907972475976959
H 2.0591492450491584 0.05647166888168237 -3.126529560533658
H 4.109136161513115 0.3719783853652111 -1.4446562219205568
H 6.153781819367097 -1.140250793790494 0.4081238457183784
H 6.4206922819199 2.438640853738946 1.6114782771881753
H 6.449079403477433 2.5642167515334453 -0.31072055213688665
H 3.8736280483705117 -1.138561996663562 2.4467088078445216
H 0.3439397140206335 -2.01181133528515 0.6710728510201478
