42

C 7.926826588550748 2.474369006433075 -0.011606903078771576
C 6.834160110912806 1.8649559292007847 -0.42631128736260293
C 5.7210714928431505 1.2416933024806238 -0.7290409389331548
C 4.872472042259776 0.8236853887028524 0.3802344484678112
C 3.852242500194395 -0.170324039900949 -0.13007858792081456
C 2.66928577160117 -0.1400001199615119 0.32331818590562716
C 1.4981912202715275 -0.9908147391493011 -0.0062946366448919985
C 1.732612402953589 -2.034907322422646 -1.0194987432814167
C 0.41313945451406586 -0.7117368210079196 0.6337142378785386
C -0.9045281940594617 -1.2454894337692755 0.6383383200735633
C -1.319541462757381 -2.23458381011494 -0.0861988263348762
C -2.680236644926489 -2.8905923226802717 -0.17446480078814924
C -3.6766738760391546 -1.8529550678194637 -0.5407926272296044
C -4.641363317486059 -2.233469028091786 -1.345743589876361
C -3.681747098758015 -0.4440357299112645 -0.08625767656740527
C -2.926113352405922 0.13650168708159666 0.8230538865827511
C -3.1704776808222532 1.5370247711200242 1.0467982381647913
C -4.08012515200742 2.208709429744382 0.39901030438328977
C -5.200047730285907 2.416071010504819 -0.6005137180565541
C -4.738349355356337 3.5592377153628427 0.2119447316888737
C -1.8676619336323332 -0.5389626685088235 1.6117483722598418
H 8.743235507498458 1.8279668644078428 0.16336281654947288
H 7.824869693087835 3.520536402091918 0.08555798313893365
H 5.564365396238235 1.111448190236962 -1.7653592113890793
H 4.397914998810105 1.631231512481426 0.9426230925103393
H 5.503850510728915 0.23313384059047576 1.1012527569114914
H 4.199794288858101 -0.8607719711826607 -0.8644680492515981
H 1.1077331157186132 -1.9073422932049096 -1.9459003375179418
H 2.786284316593136 -1.9955679296052211 -1.427854748890327
H 1.6008333328393547 -3.0586995365486307 -0.6375648574858919
H 0.5532766555291196 0.16098992948808652 1.3556104351890148
H -0.5986572820089487 -2.6636880713794473 -0.7244303435528128
H -2.931498685015309 -3.290031412302963 0.8406739593513669
H -2.6603571504185752 -3.7003146887684393 -0.9117655180032981
H -4.669832998326132 -3.2451363666023467 -1.6947133049233267
H -5.38979064635714 -1.4820912872933893 -1.629970613809768
H -4.4180559017275085 0.1217810929742906 -0.6035504367351243
H -2.5425981986370703 2.0266272384702733 1.8047014597688424
H -4.877487858267824 2.382327758620206 -1.6720613224025322
H -4.106880883453771 4.35681754361727 -0.213419880975647
H -5.444474452377685 3.8855458852227827 1.019720329792131
H -1.2756595448771055 0.17086016139347754 2.1933354010057053
