30

C 4.336739688851187 -0.5654044410361926 0.3071428284179563
C 3.3124048515745166 0.21684909515990616 0.4860816492303075
C 2.207403670049567 0.9233458201025918 0.607878159510027
C 0.9746804880167509 0.2506886416565383 0.3429639701298713
C -0.07088248153570172 0.9194679864536144 -0.07546093814219734
C 0.07835812970524171 2.3971292923307232 -0.26163015137892565
C -1.3818729627724595 0.3248072604531031 -0.376258281408497
C -2.5150835485492187 1.3433964457767935 -0.22713805050301808
C -1.4942984191304367 -0.377697663835426 -1.7118277949279117
C -1.927008170327924 -1.65452391924292 -1.0200692406310723
C -1.6692309308572915 -0.9576761928227217 0.30784217471381337
C -0.5334495037351694 -1.585654523141717 1.0275227708787629
C 0.8219435903693114 -1.2164825397220353 0.5265616652236443
H 4.7488036113183645 -0.5795994993416446 -0.6782935231670949
H 4.642427144843018 -1.1036362676299176 1.1756690811402335
H 2.389276903554044 1.9253886542987702 0.8946749551552885
H 0.8087340156945918 2.54579088923083 -1.0851496778092495
H -0.880149291220064 2.8821910040936296 -0.526744108607164
H 0.49104596151769947 2.8449383989880404 0.668913302234459
H -2.629103673944964 1.8794645062037547 -1.1826515612103432
H -3.437948204282559 0.7440870759544976 -0.08277326010956705
H -2.33161058183333 2.028616772412573 0.6255547269324074
H -0.5102277775142887 -0.4667704317386352 -2.254270637775812
H -2.9900082334532043 -1.8717744979535398 -1.1638049766383296
H -1.308650179004621 -2.5372894277245135 -1.2196025698064346
H -2.5881255789629587 -0.9662144473513316 0.9625435431188349
H -0.5752536743899396 -1.4132466506212364 2.1310474205280325
H -0.6345938149353123 -2.704888957380087 0.9104565063087012
H 1.1038635709516353 -1.7069007645206793 -0.4277156142043336
H 1.5618154000020552 -1.5184016190529535 1.3185376327978349
