38

C -3.0769584496790823 3.6953569122993453 0.8409454457470342
C -2.8348519066059197 2.4450489118149314 0.590628255699032
C -2.647858133630634 1.1783713589447626 0.37567575131463105
C -3.795624012603614 0.37216260267620843 0.6431367969471996
C -3.9722702269740173 -0.8681562066585709 0.23697575531178885
C -3.1189872465926034 -1.7317257843163563 -0.5483649353524045
C -1.6680560183187345 -1.747823050253619 -0.22372232633522943
C -1.4723779612963153 -2.289488231777805 1.179631853259056
C -0.9540998730227476 -0.4745037488733982 -0.35398183926987303
C 0.2755126334390519 -0.669767267391468 -0.8260712853882624
C 1.2338501247665536 0.47740061091440866 -1.0594539245419456
C 2.0763399290242868 0.7447237270719204 0.09945161182971747
C 2.8669628852544 -0.18041166027677377 0.5510796188807175
C 3.8326919380657647 -1.0453009751695082 0.8292782574516352
C 5.057726930425071 -0.9410224224498784 -0.021416278004496223
C 6.116016801080125 -0.07634570567597626 0.6110916101949974
C 0.47980921034041146 1.6738033940942372 -1.524624639285767
C -0.7511855338129272 1.9004166957765631 -1.0462145374743081
C -1.286568493891477 0.9472848757092834 -0.08405073706363442
H -3.4416188071203972 4.233824403856918 0.0018384016922075202
H -2.8793007390939076 3.9891743545892258 1.8287746572941352
H -4.579081232551308 0.8328598668117373 1.2316558173835104
H -4.922361487107347 -1.2836823457418212 0.5597485611352453
H -3.483286065946142 -2.7844574729900082 -0.47397045044144304
H -3.2751245952985943 -1.468518290119635 -1.637617333453311
H -1.185723210881193 -2.4852943920194446 -0.9010426949446124
H -2.3462078960731785 -2.9360978661564476 1.4106813176446908
H -1.479536146536533 -1.482461457806289 1.9406177633766153
H -0.5817308445822962 -2.94693879689533 1.2529918281312622
H 0.6705322248727197 -1.644777829133926 -1.0722014626827514
H 2.0623771995570204 1.6906339627942493 0.5876604094006961
H 4.847409006093501 -0.6387615962903938 -1.0464128678565383
H 5.454273344519908 -1.9969932011801437 -0.0836220246322543
H 7.0985933932577625 -0.368576614920859 0.14864245795110492
H 5.9665396051198005 0.9886592308001103 0.3461153514275403
H 6.192296048994054 -0.24751735509426623 1.691676838987127
H 0.8715065845273099 2.390191032392356 -2.242130823252044
H -1.3496289777185446 2.7487103306456597 -1.3428937076409777
