31

C 5.976001853899703 -0.9568329784426389 -0.8939206558762716
C 5.0554415557880334 -0.1994980000306489 -0.32528553782306546
C 4.10155309734108 0.4773139183778295 0.27504737837112386
C 3.153843015345646 -0.28411521451255806 1.0177998765554022
C 2.064339744329752 -0.6386198725271522 0.36867420274025337
C 0.9670825701336128 -0.8524310946807913 -0.32687246917605284
C -0.03709741699525818 0.1575014724382927 -0.24865917512938568
C -1.087257081453526 -0.032712575290044905 -0.9792276552065385
C -2.1718132459538273 -0.3593663250172082 -1.6739594316358235
C -3.1367573809689704 -1.1041667809488371 -0.9545521041980021
C -2.9809037439623776 -2.3868656682172316 -0.7174516398458761
C -3.9575499542226407 -3.208999679093041 0.02788009263332406
C -0.0008248079006660719 1.321469131270246 0.5371155950497426
C -0.9203113450439449 2.2566685543114606 0.612715322401107
C -1.0471374687868737 3.5529393184147913 1.390178962143038
C -2.3423267390361153 3.709190019368397 0.73016653163195
C -2.2204770785863617 2.5826840418173242 0.061231633047030595
H 5.725948650117974 -1.2856674051068324 -1.8666919120233507
H 6.829316533159423 -1.1254560306341774 -0.2943793419646594
H 4.1623147047742926 1.5246852273395732 0.1255388045727488
H 3.16661720810868 -0.6225182211604621 2.017932031162951
H 0.9768754790540186 -1.754837939460403 -0.8583726839564988
H -2.120854188139211 0.005897035474468938 -2.6547382636768044
H -2.091046446122244 -2.872522139130546 -1.0856269637071587
H -4.623544120103094 -3.7613511409840066 -0.6904288075216802
H -3.4100889552765974 -3.990911377011953 0.5857487541518155
H -4.624438589176848 -2.607757793312117 0.6628941859430169
H 0.889369014065354 1.5030750241566957 1.1772500388772853
H -0.2829328139459987 4.305559049963769 1.0623825128908477
H -3.091771268615389 4.511997034575881 0.816668730930135
H -2.921570781827792 2.1356504080523018 -0.646433926883534
