10

C 1.9965202938254976 0.2861545165949003 0.06477952501962142
C 0.8190649342948622 -0.29833191117846897 0.0551338631415258
C -0.3960656540473281 -0.7809207183380797 0.03638458938470993
C -1.4868642997859074 0.19578621551765918 -0.10481381964712509
H 2.3450488141768497 0.5683761798693127 1.0287917452765922
H 2.4447325171937804 0.401310561458903 -0.8859086596890878
H -0.4415588067259249 -1.8309518534007627 0.12669803362373636
H -1.2252072039442523 1.0829757827104773 0.5098176395675497
H -2.4402097999214942 -0.19369788970123203 0.31552005296540464
H -1.6154607950657867 0.5692991164672743 -1.1464029696429447
