19

C -1.9817324325691519 1.9942139805782715 0.3121644875662757
C -1.7005818703679854 0.7195420908630219 0.40050567093716455
C -1.1755414445416958 -0.4499349358150014 0.1551957824830458
C -2.1317742689576082 -1.4799441262707138 -0.08208325855878293
C 0.26863788431682795 -0.6910196668656764 0.12141746088281148
C 1.0166616365264771 0.5841532702586681 0.409765469359753
C 2.4905044665916165 0.38102287149140746 0.3847174230256806
C 3.1413139035735385 0.11135267118369668 -0.7273296412803917
H -2.1284598983240643 2.4168353797890543 1.24190696871811
H -2.056030006015966 2.553308714341768 -0.5814681956578899
H -1.826854330541181 -2.2158264182942387 -0.8853987035885467
H -3.156846749353369 -1.1643341064972486 -0.3787093249643031
H -2.288752396104727 -2.138234511736609 0.8226790028107167
H 0.5086116400380929 -1.0964995626733105 -0.8911846767170567
H 0.534217338602066 -1.4231638268685864 0.9118757207857571
H 0.6930109146599722 1.4199043069722788 -0.22183724719537107
H 3.005470138824871 0.4682931245049501 1.3440095388452824
H 2.572212008179884 0.037135845183570604 -1.6515345562219315
H 4.215933465463613 -0.02680510014590033 -0.6846919212304572
