22

C 4.990303174061784 0.7514392579941075 0.05081119789351857
C 4.032212855729076 -0.12415680962154174 0.19984550151627997
C 3.0479975914848842 -1.0014859180526567 0.25568728666321733
C 2.3484565138559534 -1.2663222190013557 -0.9941915075235224
C 1.3525810644965197 -0.22161508417400022 -1.3013898745869354
C 0.049989452967260074 -0.3973076027918456 -1.1467173679181408
C -0.9028001714737933 0.6205528632470422 -1.4472687848853352
C -1.8501402557749926 0.8195878085283659 -0.5441163483992293
C -2.7953817845789692 0.8556749854504802 0.3513826850294475
C -3.9159078870907336 0.002141129252571398 0.1772892121259931
C -4.901287236281643 0.002024122562356644 1.0590604749739894
H 4.693842533335269 1.7653336218496567 0.19757405343951975
H 5.93706799286596 0.3460725594437146 -0.19710334997799409
H 2.8945209667049396 -1.403814688649798 1.2188435814260241
H 1.8539072481182028 -2.265274207693645 -0.9878867071177396
H 1.696570593972792 0.7341181686087006 -1.6703552488960143
H -0.2684935758852783 -1.3818861583462725 -0.7690590262962639
H -0.9934630553750716 1.2592024356235665 -2.2819984309067625
H -2.600345630314937 1.5480172987139922 1.1338766442854151
H -3.9976461343062244 -0.6593508385419944 -0.6623412063989339
H -5.779649357105324 -0.6311418339976915 0.9721137472508489
H -4.892334899412406 0.6481911095972249 1.9420095832781823
