32

C -0.1814353252510602 -4.360066361447886 -0.8320323061182207
C -0.6671303497844501 -3.189478425855496 -0.5467197078700603
C -0.87857511704216 -1.9863836373650345 -0.1375711550510366
C -1.0960411130822982 -0.6507055298658656 -0.09059621832158615
C -2.486224583408083 -0.3365637509462904 -0.1055452507559274
C -3.0857253580824744 -0.3995614592313449 -1.2667850126091835
C -3.6172742544179752 -0.47031822161400383 -2.459072189513842
C -0.0524667869513615 0.30501902709475853 -0.03506484670207375
C 1.163129394367766 -0.31515898120174135 -0.029828821691423698
C 2.288571615172809 -0.9578428902008224 0.10830368053752332
C 2.717231278170182 -1.260093499468644 1.4554874577449142
C 3.968878506094398 -0.5197557336087223 1.7870336320276563
C 4.805389013164003 -0.10102530134349973 0.8289559447778834
C 0.10459487285589934 1.6891409530147101 0.018191903676596764
C -0.6684083631787728 2.71024530769497 0.04125741999661007
C -2.076726163197884 2.881414005655235 0.021765879770273982
C -2.559236972825595 4.1635706225826885 0.05932301615145847
H 0.2753355312048722 -5.020951047875483 -0.11527630695084401
H -0.23945631897684597 -4.692328311489865 -1.854915253742329
H -3.1190335549214177 -0.062001833640499916 0.7003163496221755
H -4.0117375249355725 -1.4362524580155211 -2.7122511107025162
H -3.594718649343033 0.4202208552391393 -3.0248281221360864
H 2.7575632370306096 -1.1789398410263017 -0.8265161438387125
H 2.8994984834300492 -2.3336445704440276 1.6591721694403783
H 4.229966171990355 -0.30367239813867414 2.8124240532315246
H 4.603744702235212 -0.2848095880018775 -0.22506581764236022
H 5.705223827496177 0.43075372286723834 1.0602144916018958
H 1.2080629331780983 2.0743067431852222 0.04834608620034114
H -0.10087271171522434 3.721838432847371 0.08865157126317692
H -2.847458193838893 2.1625884443608174 -0.01815946851010925
H -1.8318394379665721 4.938429348112435 0.1006031204880847
H -3.612828787470246 4.362026378126889 0.047283696887161754
