22

C -3.19908722764404 1.848114862022305 -1.3652752497715714
C -2.556722172226861 1.0068987662141207 -0.6070249043376046
C -1.8401645160638185 0.1217618450292158 0.022604260619388018
C -1.0200113799985797 -0.4985931139214836 0.8567498933761714
C -1.5250749933960015 -0.9639652588468005 2.1410854729456785
C -0.7798864720227383 -1.585399913970017 3.021602791454825
C 0.3512046649969977 -0.6842813034125348 0.44462384447500364
C 0.7686305451449846 -0.2519630547351914 -0.7180299521944171
C 2.194938570458924 -0.4480782862715823 -1.1404411679704287
C 2.867633965309584 0.874863031377083 -1.3973091872717431
H -3.339069817711019 1.704450901797614 -2.4242454718290576
H -3.6086253467633798 2.7309688689011518 -0.901509443085336
H -2.571671983972282 -0.7777323548030352 2.3611401890915094
H -1.2306422437452849 -1.908042888543259 3.9711608986401394
H 0.24655798726838132 -1.7918215691629522 2.856247446234474
H 1.0313910714341143 -1.1813370335197892 1.099364607803985
H 0.14429989850866098 0.2609670504844928 -1.4392758447994625
H 2.7401183746723707 -1.0681351392627225 -0.4330290821671302
H 2.1701313817048287 -0.990084395513025 -2.1100852600508033
H 3.9169402081349896 0.7765100946137025 -0.9917418058853317
H 2.3480071141237713 1.6525139018066586 -0.8011559673524493
H 2.8911023717891693 1.1723849897138092 -2.445456067918968
