44

C 7.6100744050315825 -0.2353033394701195 -1.3204672053072166
C 6.636610614852159 0.20346977386198176 -0.5755042238099428
C 5.792436171343974 0.7436334908453549 0.21404220551469177
C 4.759171008150563 0.9839186893132198 0.9677826027954931
C 3.5285299478662933 1.5478317809833835 0.5319622557651768
C 2.851802381471989 2.7724585118646257 0.9674508138420259
C 2.887770793116325 0.8933710015884081 -0.3904693971783493
C 2.1987855672280396 0.13417851026284253 -1.2226174240399692
C 1.313309797347074 -0.8152247324765262 -0.6140603487773577
C 0.0392441073501452 -0.6746398818522856 -0.2896916268449799
C -0.8673785471457598 0.46832395752812406 -0.44046286779310884
C -2.131208931693106 0.29835769152738295 -0.005575094853805845
C -3.3266278668679337 1.1624778610167685 0.030824336319716376
C -3.415624829267171 2.5493484253069574 -0.45033504624557225
C -3.95169812753269 2.6493722100064243 -1.832375655827486
C -4.864108670122268 1.8045724471940894 -2.250944587998716
C -4.327742190451065 0.4562087895634723 0.5844643847444413
C -3.827772900588435 -0.8950887762754389 0.9314046211134818
C -4.365662250835243 -2.030264448030642 1.5053658366743896
C -3.5646865467468802 -3.1701907498904167 1.6862162265694611
C -2.2410878501440568 -3.221760242699471 1.3147380803745363
C -1.698378791876942 -2.0780712789957114 0.7362395880105311
C -2.5217440693468993 -0.9581921076183909 0.5693245406772312
C -0.36687554177748755 -1.9374843857538702 0.2921508968780276
C 0.7019921177584407 -2.8178793403861992 0.2989851113314488
C 1.7618222847668823 -2.1781413423949365 -0.24769669974940878
H 7.491421191504862 -1.063191633136123 -1.9921747675342631
H 8.577588842222845 0.23064303608419895 -1.280484296877602
H 4.8553301816110634 0.7247049646082019 2.034830700650903
H 1.9502493564771188 2.474351169060567 1.5422923634823484
H 2.6363104947332623 3.4202174453915695 0.11371628263174934
H 3.5347638957567318 3.3537443390726422 1.6533099000147597
H 2.4126814151101836 0.3502751466947693 -2.2233347364726432
H -0.5652838171948111 1.404794845053946 -0.8721443686465302
H -2.4305746017314864 3.063123816658609 -0.3794453903650307
H -3.598171807073485 3.4159463189436465 -2.506995155894942
H -5.273327021501604 1.0012707261808116 -1.630163820462579
H -5.266704170377001 1.8586464734742831 -3.248758929239138
H -5.3449737315128045 0.7497120945856223 0.777067415481517
H -5.395760206055142 -2.0255298075145034 1.8074189278342905
H -4.036350398129986 -4.040994345836342 2.1439239728204003
H -1.6219851844390019 -4.07443825616733 1.4441294687073714
H 0.7484303051195899 -3.848493102187938 0.6623583335840681
H 2.7154031735926707 -2.6500657459847865 -0.35629900597801933
