29

C -5.561194878753172 1.2296763285711196 0.9203872695029149
C -5.211777980191703 0.025292988078467988 0.56435565195958
C -4.77325466138552 -1.1816414319444353 0.2641440184228057
C -3.575922381147027 -1.6069700786519256 0.891276435423095
C -2.460674885836158 -1.4435664858929707 0.197754557085045
C -1.4112684503466337 -1.1322401087226095 -0.526437793881724
C -0.8518000294497443 0.19620642302089253 -0.3156587796768291
C 0.010406524744591006 0.532945697763622 -1.4835724694709034
C 1.2542763151630927 0.09293800653228025 -1.6104452855122307
C 1.890798087825558 -0.7819764426324164 -0.5819425877694776
C 3.1082772163498498 -0.15623172130276103 0.0011575753803101674
C 3.2037726365595134 0.10112541973968807 1.291281765483706
C 4.420139683908194 0.7200746740394813 1.8365882810208751
C 5.272868327443653 1.3859437456729573 0.7941329941701518
H -5.174305746631978 2.013188276369852 0.32116251786616623
H -6.19870529543276 1.276185941096 1.7800592214476993
H -5.399767160050396 -1.6889004074057152 -0.4319206344113832
H -3.39916268367409 -2.0415927957321505 1.8357119143947191
H -1.11168816444442 -1.90710462693431 -1.178448006407773
H -1.616797709299553 0.9826463341475706 -0.1434369862754976
H -0.39753586710995337 1.1601048587452347 -2.2545623331480327
H 1.8250921865858831 0.36429448885863824 -2.4650882489253423
H 2.1963834406179377 -1.7126629376910767 -1.1079097292536417
H 1.1771404821583564 -0.9787245551120738 0.23973678661377848
H 3.9398272463402115 0.09729183180782111 -0.6394931388410693
H 2.385247970647491 -0.1428833081545118 1.9550047055288895
H 5.7574837486018975 0.6147907010921122 0.14776171289430196
H 4.630778959093259 2.0298974234397726 0.1798794951743175
H 6.071363067713056 1.9518917612012243 1.3070289828276969
