19

C -2.775027019302622 -1.5549409132005907 -0.3568608457640655
C -1.670577325600393 -1.0787820594716415 -0.8576372207304789
C -0.5535997051858825 -0.5556738883509953 -1.292512652731444
C -0.05116968744954225 0.572261998463321 -0.5459094402123696
C -0.5318328613003214 1.8212278257538803 -0.6395041154869233
C 0.21974303734332515 2.720016053415451 0.2671159067625735
C 1.2070311026928493 1.814115318426633 0.9017857120495426
C 1.0279741955823636 0.5821971171745932 0.4144443899174264
C 1.8396114927450367 -0.5276705582129414 0.8388705337643565
C 1.7019858873232028 -1.7423966027886522 0.39288483337179053
H -2.6647126710859435 -2.312697780643121 0.3776716432311742
H -3.6722896402903724 -1.1162809519662267 -0.7527013189007561
H -0.15104650218504673 -1.0255975874429668 -2.1466441962744325
H -1.3556458236886773 2.1120684273925843 -1.2930762654935088
H -0.49825372946375784 3.1358604450411622 1.0267070270171748
H 1.9358192662215448 2.1354779319672166 1.634225521752838
H 2.6232243333819945 -0.3550766360811339 1.58034907310674
H 0.9871883762377607 -2.094517231413135 -0.33536474777311515
H 2.3815772740241923 -2.529590908063486 0.7861561623935168
