31

C 5.796462428406098 1.3228731595892456 -0.5059217498143864
C 4.619614400082814 1.3895330905906023 -1.0764988010869452
C 3.3347662206956525 1.2668238855143439 -1.3509494004516176
C 2.477758316926398 0.4848317386100414 -0.43659332565911785
C 1.3467778507533559 0.9770853478482465 0.02460343697647866
C 0.5033281564105017 0.20017238362239434 0.928103700875291
C 1.110153531776011 -1.1187142568155808 1.2474583656856955
C 0.49496951461520206 -2.2857822384003965 1.1110030019636785
C -0.9026357751487245 -2.441191388296193 0.6143748042610571
C -1.6324781201663325 -1.1652643674132344 0.9737421953594917
C -3.049760399828586 -1.172167509057727 0.6417934647026674
C -3.545054756519677 -0.439922147767895 -0.317095706048934
C -2.7087469098621453 0.45614205497011184 -1.1445928832974364
C -3.411436421143305 1.7927170792570803 -1.2282072165157925
C -1.3594000479609682 0.6826159207185336 -0.5836241855724292
C -0.865095687191089 -0.049114058936223705 0.37741406490797114
H 6.462006312851845 0.5357513174145946 -0.8034561342178249
H 6.1108895858330445 2.021545347112707 0.24353410923815277
H 2.8537278553193977 -0.49814331418459784 -0.18950556850486922
H 1.059319246653334 1.9671278817578006 -0.2805174640522812
H 0.3248979727724442 0.7192865183155078 1.9097351859062037
H 2.1452396928709834 -1.100025187161108 1.623153782917077
H 1.0819744614251625 -3.178245959130278 1.3912008854034543
H -1.356534454773968 -3.330429524446666 1.0592190672748534
H -0.8811908501574137 -2.602373074734423 -0.49251587171974287
H -3.716427330772962 -1.80879216406219 1.2125236943215625
H -4.605850142490329 -0.4707391281575555 -0.536141154012087
H -2.7130375914766782 2.631484006448524 -1.394228571283727
H -3.999359259842221 1.9374014927639858 -0.2817307308239754
H -4.191672992888574 1.7782508022334664 -2.0394815587130206
H -0.7832048071705889 1.4972622917975382 -1.0099227566773796
