18

C -3.319044562062514 1.4159325098818816 0.09084049267693808
C -2.8231568646788823 0.21190862937584684 -0.13719946231604876
C -2.2788233853812234 -0.9452776435924726 -0.4229558153542245
C -1.25728240185387 -0.9284297510840445 -1.439377042394591
C 0.015172949901236294 -0.6905627556886927 -1.203897984420245
C 0.42438579903662893 -0.42832763248285194 0.15776339879972348
C 1.6304096961665786 -0.7185054578025298 0.5504709310655624
C 2.928875375700198 -0.7210762300513985 0.8136203922038822
C 3.72414740481239 0.4745140422295367 0.36897888374115206
H -2.8116743237411517 1.9587666626495113 0.840911142189965
H -4.152012323893362 1.6620225194429872 -0.5113843375323178
H -2.65862484908856 -1.7578359978858324 0.13183512308094694
H -1.5683699473890516 -1.1246626234732156 -2.452894112656542
H 0.7031361545221754 -0.6999336370399597 -2.0317928891971095
H -0.25164604212334335 0.0063408269205946785 0.8490671012648298
H 3.5046484465549863 1.2663421129908297 1.1280935572778568
H 4.805321673778948 0.19793353832103172 0.3847502691987769
H 3.3845371997389195 0.8208508872888353 -0.6073960479651737
