35

C -3.21246583438981 -3.062159894115497 -1.2432250492418748
C -3.4201994421909037 -1.9371590566230952 -0.6045658495141474
C -3.5455984337189848 -0.7947254322648609 0.010033603330937248
C -2.40464989333203 0.08149760165458111 -0.022603540752106095
C -2.541612852936064 1.3774997802453897 -0.24887001583221013
C -1.4018194262922425 2.3409814815587096 -0.2958014970060309
C -0.3347936152015801 1.7204516132316905 0.5695187253532457
C 0.9239909748570753 2.428351924219198 0.6611304897214958
C 1.1120514061918831 3.9080093324480925 0.8220287382746241
C 1.92069566373267 1.5196913265322018 0.5755134513517293
C 1.3305814686797257 0.21537190263894396 0.4244401195911334
C 1.8551462191525308 -0.8951620873793465 0.7274244932070631
C 2.514910378847763 -2.0355021356783145 0.8943838986211124
C 3.2691441641089427 -2.5201707781622464 -0.21180863945806594
C 3.942948894472826 -3.6523140549512467 -0.0941851715687573
C 0.036191222580874885 0.4156775878318929 -0.145767486292817
C -1.0536547778072731 -0.554031595131831 0.21212498102471258
H -3.4713920185372613 -3.0450699221079387 -2.26979275304904
H -2.8121146064613876 -3.84277211927518 -0.6520911674317559
H -4.483785303539585 -0.6390173981299518 0.46907312931309225
H -3.5404201152296926 1.7509055466355328 -0.407765436133798
H -1.018704967802949 2.3469859946495557 -1.3372682505532931
H -1.7053187122949862 3.3444007582257513 0.06237802198122333
H -0.7470425951548929 1.40516896457634 1.563095896169288
H 1.0859096313779142 4.3748478310848355 -0.18662077228786395
H 0.32684966731822956 4.30956486837619 1.496649424638225
H 2.1333283149831166 4.0664993238023595 1.2203071989920173
H 2.980762113997386 1.8156332479345654 0.6234883111517118
H 2.3696698558636613 -2.4156236148816443 1.8584473612096502
H 3.3501067538053766 -2.0429137095853926 -1.168115001290475
H 4.540153648872807 -4.097083474290131 -0.8736034314568093
H 3.9095917724625404 -4.189733353272398 0.8387599007704627
H 0.04818215182982928 0.6494470093034885 -1.2373674886161967
H -0.9466373957081866 -0.947958575061112 1.2209563456553931
H -1.0100043125382343 -1.3995888940359704 -0.5043833944677995
