20

C -0.6992438764055181 1.9226579804642243 0.9960945648166342
C -0.49970940301308386 0.7137552849353453 0.5366933836368155
C -0.1808070433997567 -0.27690347764576684 -0.24123355662188448
C -1.257781303879498 -1.1835256034714319 -0.5157710581068216
C -2.579252082474553 -0.8698800552531374 0.1263682627257264
C 1.1502850245784002 -0.47155331745561846 -0.8042571038535006
C 2.0298362038502784 0.6418458387147689 -0.3190891716337797
C 3.103657452263688 0.39840678579781863 0.38417237246091307
H -0.9929783579055805 2.760163459502061 0.425900385540886
H -0.5346868166138041 1.9882687998831379 2.0096700254550632
H -1.405406479638053 -1.3150918047032234 -1.6168677676954621
H -0.9695590859855334 -2.2053928488983243 -0.1482261458743719
H -3.255191907803968 -1.740540367468988 -0.07325022950340185
H -3.0740959917223383 0.01509914307648657 -0.2994966158097327
H -2.4361626720175087 -0.804525193269341 1.2193645452351274
H 1.1368014141422098 -0.3423905749840345 -1.9262607556907592
H 1.5850372197990772 -1.461092080198994 -0.5586390217348481
H 1.7790247420782859 1.6703082440842072 -0.5507073199797061
H 3.7412227074543676 1.191343377684137 0.7368357855599883
H 3.3590102566928906 -0.6309535907934336 0.61869942107315
