40

C 2.3447449848619586 -3.453369239407022 2.212044348869715
C 2.1515688393737964 -2.21170838935651 2.5861558285019615
C 2.0187596470850875 -0.9287750835196626 2.8824457449852883
C 2.7160084623046687 -0.0073512965618123954 2.0642485631081695
C 2.577880874445082 0.5774503015349223 0.9257794858551889
C 1.6945383484385446 0.6786653860529895 -0.1768180659942569
C 2.2120526319026372 1.4873585089450292 -1.331636995200017
C 3.390353061108801 2.044414640625203 -1.36132379904552
C 3.7671305205269214 2.8196130830947683 -2.5767410204167818
C 4.9458133836903535 3.398398967374365 -2.649877920977772
C 0.44548741371637257 0.2949449274017705 -0.27068401016998966
C -0.28616551140388 0.4542944066183653 -1.4646853013409338
C -1.631521413104225 0.13951069419870532 -1.519635097598528
C -2.3278782122125588 -0.3381653747564577 -0.4443294242476425
C -1.654348061154647 -0.5073019070238356 0.7329695304711296
C -0.28721232265226565 -0.18578821301574444 0.7893451101354225
C -2.5535110760745563 -1.018466800419006 1.7500559491991003
C -3.7376798158160875 -1.1396908597514899 1.1506771773083282
C -3.5939170566865504 -0.7158910137409739 -0.2136032898910319
C -4.588727397660088 -0.6650854089140223 -1.2545311947683824
C -5.806495096888756 -1.004045263318942 -0.9482224176087234
C -7.000201438447313 -1.3689428665108785 -0.532223440614439
H 3.1744087897472544 -3.9279320633179746 2.6722754058795304
H 1.6483684838953203 -3.814624096585033 1.5013884860382238
H 1.3854908170450229 -0.7658221497921114 3.725199335515295
H 3.70951189680712 0.3072503463841369 2.586671089799594
H 3.5341668233508474 1.2820716722431984 0.8134760059916065
H 1.5937710355742378 1.6490048939576267 -2.203234902342096
H 4.1496644761750545 2.0168295830427945 -0.6171359248459801
H 3.0972948314963618 2.9261503200240373 -3.414706843166974
H 5.68005292509116 3.339697574867857 -1.8486581431472944
H 5.250727880219204 3.9657868144567443 -3.512332320000431
H 0.22464693209283831 0.7972777968392146 -2.331615928992458
H -2.135971388126581 0.28393426474336025 -2.460612736309516
H 0.17777240620761758 -0.28642834861081834 1.722781706617959
H -2.3708864214182093 -1.266719012168939 2.7801753988235927
H -4.674259193958222 -1.4972403333406596 1.5958310939153852
H -4.448975806664361 -0.37988566486102554 -2.260200325730251
H -7.594499447838219 -0.5760029347059098 -0.16324556744218824
H -7.197965805048942 -2.4034178627264104 -0.623730486104828
