42

C -7.049087410036857 -0.641132437290234 0.3118231512738664
C -5.933829184352857 0.06256990165305636 0.32136703414167794
C -4.780381518922535 0.6823809780440001 0.324181975571539
C -4.916744044950226 2.13200426167414 0.29808643492815534
C -3.604198779966366 -0.11539419470635352 0.35124605644240375
C -3.4910513769939464 -1.2721898700851557 -0.2928306304635956
C -2.229743928374294 -2.072872479145606 -0.23098007483110408
C -1.1053844840298819 -1.0927532065620624 -0.2792382454847131
C -1.1406332387785898 0.06429189837804303 0.3501848574927057
C -0.05298392217078677 1.0578559311010245 0.33307456101498584
C 1.1878156660076562 0.6587312417983275 -0.37552512104222585
C 1.9694101029847884 -0.4579875069577199 0.2147403636637892
C 3.1667386112469402 -0.728958793936185 -0.6543852858985035
C 2.9972300247163783 -1.1187945751117259 -2.0756600359332453
C 4.333987589053425 -0.6054902319348948 -0.10105927084063242
C 5.54862005510981 -0.43325519405371454 0.32083666873469835
C 6.722690808415687 -0.22257185705953514 0.828353875368439
C 7.26610267475246 1.1432188633662985 0.8467341373432856
C -2.4174078068643032 0.3481567361797117 1.138124382126877
H -7.3940392279806595 -0.8820519631677711 -0.6540775887876609
H -7.421529732292809 -0.8526909379019227 1.272852429962481
H -3.9187220283239257 2.596318745757547 0.46080157192851695
H -5.373687505013698 2.4446606975382332 -0.6737521489450883
H -5.584938976795894 2.425978796241982 1.1586807705231907
H -4.361092810149595 -1.586618749699734 -0.8544548406872022
H -2.2333984753435567 -2.671502759659546 0.6873271872861809
H -2.2296031639175458 -2.73875159926528 -1.1019000052203134
H -0.2697002644893371 -1.3692617912336769 -0.8865168545471549
H 0.16438492949457584 1.2854728457034386 1.4208851880458249
H -0.44695096324894146 2.0576225976339546 -0.041876372901801705
H 1.8713370085720737 1.5613708733514826 -0.3662585711964725
H 0.9666294876269627 0.5199455928504447 -1.4580519983684936
H 1.49732064931118 -1.3953135363384142 0.4318895935092858
H 2.3501365712555065 -0.08685002944961637 1.2329289682083902
H 2.3616874061938025 -0.3885138126494148 -2.6392375075886827
H 3.979150694371919 -1.1653334179863584 -2.5523179902556583
H 2.4610131007406655 -2.103361256818149 -2.176334321726701
H 7.284699539511039 -1.038527224801848 1.2278067204121113
H 8.011045314888763 1.2905933822658437 0.016948560950409437
H 6.487988871079915 1.9227187725821384 0.7193898406493611
H 7.824527461707879 1.370412992271566 1.7863039956293216
H -2.4974077240462007 1.4158723174232475 1.3598885395139946
