19

C 5.322911427492607 -0.6156968178262457 0.5175749855839166
C 4.104680666345681 -0.11591190000539231 0.4725979788017914
C 2.8755361784208837 0.3237641695315414 0.4479438256245483
C 1.852899455197973 -0.676137899630432 0.6491654978309032
C 0.5876305720501801 -0.28310503219980654 0.604532961834628
C -0.5367728574742326 0.36649033271449344 0.5194805277418888
C -1.1158241625591312 0.5573136027351877 -0.7878766483048913
C -2.3990945974273843 0.31617259452278274 -0.9785997871741814
C -3.216253385282863 -0.13873206543981367 0.12819550653100534
C -4.482917621989878 -0.3794797374223988 -0.04908269622731172
H 5.760118247106873 -0.6267728519499265 1.4785774148941693
H 5.694239815223047 -0.9376415643541078 -0.4162623930193399
H 2.77071402562049 1.3612110006968374 0.28349982778366006
H -1.0138156585865887 0.7501046395419977 1.3888211997399782
H -0.5244645698257733 0.9011674288090473 -1.6486747649078537
H -2.8607418895286965 0.4490208296599497 -1.9421584651442854
H -2.765426918341408 -0.2819169877691921 1.1242354259581226
H -4.93648700379193 -0.24637309513901093 -1.0065160536634128
H -5.1169317226492605 -0.7234766464753244 0.7731696587880952
