27

C 5.551811023895974 1.1879928978479575 -0.2247432054251585
C 4.6493137417795785 0.2685831597822619 -0.014727315179190304
C 3.694678755915123 -0.5943714454648696 0.24263219497243435
C 2.5325104483564482 -0.07999145328282876 0.9003662309948685
C 1.3096505710333775 -0.22811307137727468 0.4229926990044915
C 1.1163619560121132 -0.9580587038933354 -0.851016159458882
C 0.15347466490806405 0.3065734482367797 1.1162424895921685
C -1.0478133646897636 0.13400949660210804 0.6014042840528838
C -2.2216881657021137 0.6598090041859453 1.2763208700575672
C -3.4047458079428297 0.472282847796041 0.7394860846911546
C -3.568935128625327 -0.2553536942341977 -0.5252136948006862
C -4.988452347325233 -0.016048331242488913 -1.0196257703525113
H 5.457965698065098 1.698305050479449 -1.1650652446373704
H 6.260571245377712 1.321837619597195 0.54683331286312
H 3.908411907147938 -1.5780505376555147 -0.07399927740091577
H 2.674527637500694 0.4582904297390227 1.8397747365576478
H 2.1101029072538564 -1.1736826494105423 -1.3302743198468803
H 0.5701044637245674 -1.9320161660565212 -0.6911586804725987
H 0.5280350058495719 -0.31691613411829656 -1.5489631281732283
H 0.2454661967741309 0.8488570696620333 2.0531702560361653
H -1.1526795791399422 -0.40552346168152886 -0.3332501485799889
H -2.1228999764201917 1.197181685809522 2.20615335326353
H -3.404745038390953 -1.3512930833211814 -0.36680108729558464
H -2.8856484485391682 0.09684281415219764 -1.3194830975127947
H -5.680909501147734 -0.018813284092949013 -0.13323838281082784
H -5.293482298124908 -0.7532138048337662 -1.7873419812117337
H -4.990986567546472 1.0108802967747355 -1.4680672139278352
