27

C 5.057572912308387 0.42556777481284347 1.3929874752641902
C 4.40820331095014 0.17340956928150197 0.2696675150382005
C 3.7011444422360844 -0.05139550198770812 -0.805085052958388
C 2.2989285417369643 0.28071343413906935 -0.7169898628504082
C 1.5435661719424991 -0.7295810664355076 -0.3160778672764489
C 0.08859669565279236 -0.7368396588075437 -0.12008500477206624
C -0.7467141480749562 0.2642852865908188 -0.2683771632122248
C -0.41245366609494893 1.625010923000497 -0.6660042254573151
C 0.6771292091409115 2.161984176753149 -1.1384100576875578
C 1.850326409608686 1.624729224271982 -1.0566750215366005
C -2.1390020983390587 -0.19938555262606888 0.03770360089327687
C -3.142114972997156 0.5941518581192868 -0.034295899943110976
C -4.52326692886541 0.5533401078098743 0.16059857052469015
C -5.2290890716666585 -0.4804380402806147 0.5229484951633938
C -1.950809014123743 -1.5994811393979853 0.3758576161785793
C -0.6489543358628348 -1.917237232037763 0.28459262823437737
H 5.080348271558605 -0.3800998535098803 2.0744641078758117
H 5.462856891096076 1.4017831565457786 1.4502976006862998
H 4.239901869321291 -0.4523099794367686 -1.6186953936610586
H 2.0285508263342282 -1.660294626434649 -0.10404730903041358
H -1.2294805155584407 2.3205139094111393 -0.5437830367998671
H 2.652593000642144 2.319539210636142 -1.2885018073848613
H -5.081971409283983 1.503084065685977 -0.01118794738861434
H -4.787395690613229 -1.434332340798636 0.7114468228077373
H -6.31490267566086 -0.4127950949228236 0.6503062302419751
H -2.6803636795059353 -2.311005521845575 0.6578341197624118
H -0.203200345881334 -2.882917088536506 0.4756700932286355
