20

C 3.3203479027392278 -1.7038503275555432 0.22151941851371304
C 2.658538696841699 -0.6330196328385549 -0.11424573289435283
C 1.9297868660974524 0.4034088802391679 -0.3993059486896528
C 0.5814785967648827 0.44565991252790327 0.18363822742495703
C -0.5285163673905641 -0.38453486677236925 -0.2730542889510647
C -1.6005152356427679 -0.8642472513044597 0.6026848492733412
C -2.4938761181748244 -1.7228216406590027 0.12437232534792489
C -0.4675035837580294 1.0073183459316835 -0.7699811394617244
C -1.2876343868080307 2.1087119324498698 -0.17536393574719059
H 3.8971138196851416 -1.620066140471755 1.1091296621041187
H 3.2029875877325193 -2.5323352097915715 -0.4318427872306883
H 2.392290156301204 1.1155188744432298 -1.0294814117357372
H 0.5616777417776649 0.7700618651578451 1.2443323636974906
H -1.6993628201062496 -0.5461772908500182 1.637515254832158
H -3.3173276681710857 -2.114059751113271 0.7371691637725984
H -2.4627535017302296 -2.085091899911715 -0.891804453878391
H -0.20922077891461466 1.1313239158248205 -1.827703751316244
H -0.7617318032015977 3.104287084225814 -0.2308490694976962
H -2.2470918284540407 2.1794248458869836 -0.6963996220623316
H -1.4686872755878444 1.9404883545810379 0.9071162406158938
