22

C 4.995210156309241 -0.07054687082034826 0.33008605250464923
C 3.7789547656979416 -0.5557894972875564 0.2606597514126572
C 2.5408374064963946 -0.9593737104704328 0.2525175193408896
C 1.5905468833222294 -0.1880755337723107 0.9798271078775116
C 0.391313818997793 0.03189761375598745 0.49610156870678956
C 0.03799933005723567 -0.5210058630084557 -0.7955671310828968
C -1.1586083465113544 -0.32043568222347496 -1.3134313989470212
C -2.1086719852703135 0.46127595669523624 -0.5666010521284307
C -2.0771029271417274 1.8748240988185652 -0.24755847351086727
C -3.1248450451902454 -0.22769609279314762 -0.13204961346980035
C -4.169267788922608 -0.8770202052310068 0.35660606931060024
H 5.2394828987844395 0.6260927671434349 -0.4294753540297997
H 5.575411533188529 -0.43574633851392797 1.1349367678340834
H 2.382377504949352 -1.8521114925250937 -0.31925236252864597
H 1.822491712563056 0.2389308937160226 1.946937251796185
H 0.7713248696126558 -1.1031225867313452 -1.3324807072074119
H -1.3848944210840577 -0.7487827832527923 -2.278794338342444
H -2.6349455268832096 2.4508543875486644 -1.0225926948929087
H -2.4617212258997223 2.135858745965484 0.7563122206133417
H -0.9968726300534426 2.206006003894186 -0.2532339325742244
H -4.989832561730572 -0.892649832360705 -0.30165040146131855
H -4.019188421291116 -1.2733839785471421 1.3184699901489079
