19

C -3.679750526114471 -1.7492838434707934 -0.04631128671356134
C -2.909907178977669 -0.7691633460258812 0.37479046731337845
C -2.0711896146345476 0.15975914442726952 0.7566828416803371
C -0.6855383159490599 -0.06398057122512017 0.46209852296504433
C 0.15729502609863202 -1.1203393215341961 0.5187232079811196
C 1.3244893324708802 -0.42107733530390923 0.04323196066699192
C 2.5692871922661285 -0.5798051998688678 -0.23112784248245322
C 3.8396713772455877 -0.9594234245631308 -0.23632565163701735
C 0.48307613320694215 0.6886942686051123 -0.02743679724275775
C 0.5484399624271676 1.9375620570441476 -0.36394168321043463
C 0.708595265639764 3.1915177208864254 -0.7254041913304661
H -4.04462357167875 -1.6335204014122628 -1.031405497612744
H -3.828834443248297 -2.5253141045350387 0.6634792788613371
H -2.5187621518524677 0.9819861196028412 1.2465746221222822
H -0.011746796047154891 -2.15743980858102 0.8273410981000597
H 4.13573865628963 -1.3534333776650622 -1.1507997158869487
H 4.457780904665116 -0.859854585285069 0.615689549030129
H 0.5336278576302528 3.3852100953438584 -1.7517817563751097
H 0.9923508905620979 3.8479059135609344 0.055922873770766
