22

C -4.160363323879506 -1.2299536903130963 1.1045645134829676
C -3.343949581385164 -0.7032646517563015 0.24069049005279292
C -2.46753013172345 -0.13128838533716888 -0.5557995339254166
C -1.4673946932035642 0.7153121027860709 0.0776311923580618
C -0.3541004778242207 -0.1561720837267821 0.6460049463048834
C 0.26962882643143066 -0.9245234743545777 -0.4391690877509661
C 1.5527463948727533 -0.8054946445194775 -0.7957797352951671
C 2.4267750458562283 0.1533658116637223 -0.0699547447719262
C 3.7308220223074007 0.2940640245850738 -0.818664451143302
H -5.034681925203806 -0.6558991455784431 1.3173019195871238
H -3.8615876986358484 -2.178057000998137 1.5041937939409373
H -2.6074515965326714 -0.36695434007111727 -1.577077290838987
H -1.9370844604680761 1.2503716236246076 0.9469710558752436
H -1.0441757792308064 1.5056102240339082 -0.5618433540908877
H -0.7421171516117043 -0.868155997990697 1.3995794591593271
H 0.3745589221903468 0.49101363498706657 1.186538044107619
H 1.909779028513384 -1.4196415559293756 -1.6093407847248684
H 1.9286948994984523 1.1284455298305003 0.01362963400825413
H 2.6108827933667147 -0.3019033348928314 0.9405068278330272
H 4.588319458101245 0.03565557787874454 -0.1369740481561498
H 3.857700691207737 1.3397224705130744 -1.159698165419746
H 3.7705287373530805 -0.4251854946502581 -1.653310680592954
