14

C 2.014725807681217 0.365810769662623 1.3463244488877104
C 1.6466146514412934 -0.3262492269758182 0.30515708040190387
C 1.183310277494903 -1.0185363448958935 -0.7171465700505242
C -0.21896645341135124 -1.2780247589687912 -0.7255974832758018
C -1.0956706101277771 -0.27977672184156765 -0.6107123914595657
C -2.5154614090578904 0.1916944584196524 -0.5432450982864709
C -1.3856204479004879 1.1609216400376061 -0.45773402139196767
H 1.9927117826065186 1.427001833872378 1.217989812861389
H 2.291239090757869 -0.20795055318991715 2.1972354115810364
H 1.9299258420569791 -1.2956986966385386 -1.4107092522178115
H -0.5592102746797385 -2.3012967096399177 -0.8271250921894818
H -3.096622003484118 0.22256533173431334 -1.4956440907602078
H -1.1336413215545897 1.7477853075978576 -1.3888364996772824
H -1.053334931823185 1.591753670825741 0.4932013372688231
