11

C 2.239185755148755 0.3967546736422978 0.6000961545413341
C 1.209281621279562 -0.3675455408971091 0.37147753465833505
C 0.1351386716156467 -1.0721626372921613 0.07427049475817102
C -0.8171560491174715 -0.4512147114604137 -0.8336683005263004
C -1.8308518194774168 0.3911967482417566 -0.09706293092819741
H 2.12909561703427 1.0570562002683819 1.439713784378673
H 3.055799991542296 0.27890026767185777 -0.06347281715749888
H 0.1075756178429084 -2.0165704416494896 0.5459035495240309
H -1.6914378681123377 1.4467623406951917 -0.4111879794767244
H -2.8349351251717896 0.006786854310411427 -0.386333842146362
H -1.7016964125841938 0.33003624646935265 1.0043609847173873
