22

C -3.542985317554693 1.7538905185854465 0.6246685232617706
C -2.9822719339615924 0.6116262532424128 0.9862965367450235
C -2.3733150017448406 -0.5161762382447962 1.2772767714795519
C -1.350787604623583 -0.9312906179865663 0.3883897497561345
C -1.4095883128513684 -1.3266840195492173 -1.003369936636571
C -0.1445194938759418 -0.9600517645144662 0.915963845430051
C 1.0723821033145005 -0.8954657333526007 1.4082570528928733
C 1.7365986453718034 0.3781137605692538 1.234422398030757
C 2.6610289364160318 0.4884794059847524 0.11616653995172158
C 2.858520004933975 0.46030124477730144 -1.271720388448364
C 4.00594287977714 0.6956453784970172 -0.4761181002423499
H -3.0761044478625927 2.6114465743393867 1.0272612955462705
H -4.3755781372753315 1.6424597047414389 -0.014619110979840538
H -2.7379551656557815 -0.9798207455147415 2.164089658790082
H -0.8883362663552391 -2.3079087946149923 -1.1204170265791902
H -2.47822078846858 -1.5349374823628108 -1.275471348740772
H -1.0085322441929119 -0.5946417301721131 -1.728444288658357
H 1.3744827026985105 -1.797533923860552 1.8584614404893636
H 1.090471724241902 1.237383752724424 1.4183491034779567
H 2.3517687070395112 0.3290954499020406 -2.2281727715413924
H 4.445800048081781 1.7234241198686495 -0.4818786530582681
H 4.771198962547471 -0.08735511305924726 -0.3966888318856003
