26

C -4.180116571654359 1.429812775975145 0.1475767499300715
C -3.562050747046015 0.27502259324307765 0.08145346148560563
C -2.8681468827433707 -0.8318608163140215 0.06215067138397167
C -1.537773554852464 -0.7908983909262653 0.6540541115433656
C -0.4539584535488076 -0.5444997814070508 -0.2882473985192711
C -0.7837958733337641 -0.3893484151477872 -1.5401179692253815
C -1.1766183191668753 -0.21137445318309206 -2.7885715651412974
C 0.9543721871637484 -0.44505293399195456 -0.03684643292820912
C 1.666675391696398 0.6528838014555289 -0.23022891519526173
C 3.053936172467525 0.36500889538988646 0.13546480140953732
C 3.619483587770664 1.277426803775334 1.1701275245793423
C 3.034295842409428 -1.0434898963021124 0.5624874081433142
C 1.8118796969813291 -1.5240091287354176 0.46488315446057904
H -4.017335846863441 2.066625707616357 -0.6806908676415698
H -4.759296829262596 1.5715506452411119 1.0218181667609696
H -3.363345610469347 -1.649294948649021 -0.3913984836262003
H -1.468067022945294 -0.024344091932642316 1.4643850035705652
H -1.381841964207104 -1.773087833047095 1.1912594405019272
H -1.212703295771301 -1.1045649928586072 -3.3399074040803685
H -1.3912773870241473 0.7888254736935062 -3.0371428928113122
H 1.2715924808968688 1.6047070061357926 -0.6005105717483342
H 4.200231964717019 0.6412853649574618 1.8973614459179207
H 4.351767426250439 1.987599673856779 0.7093224103667966
H 2.858767157643077 1.8231082432279555 1.7616422025720333
H 3.887528308449645 -1.6318515294611637 0.913259387162721
H 1.4457981424417248 -2.520179772611738 0.6964165611281963
