16

C 3.1165815752568427 -0.3101393889292073 -0.015513270331014715
C 1.886900825645627 -0.08419028779604694 -0.4177379206100797
C 0.6532578009739345 0.10362922660941098 -0.7579132319558225
C -0.3726907526963922 -0.4872735560209307 0.10689588958599373
C -0.7478153862839153 0.5632016495792319 1.0871125448449053
C -1.744309096496656 1.2631152024958492 0.590444082450283
C -2.134143317103368 0.7489150932676797 -0.7678169456541063
C -1.672644337868078 -0.7160649085683278 -0.6286225814875672
H 3.5041993173761203 0.419078147785291 0.6423459779043448
H 3.5490829765776923 -1.1912301507063061 -0.4049251013176621
H 0.472781837636239 0.6640169261954261 -1.6263629955146521
H -0.01277130281672718 -1.412285124064217 0.607816736101974
H -0.2985351721759518 0.75687756957017 2.066287789580005
H -2.272158848004013 2.110660904703523 1.0316027246306068
H -2.3640475938457257 -1.224154828403267 0.07816170638135357
H -1.563688526175681 -1.2041564757182628 -1.5917754046086017
