26

C 2.719694652583177 1.625416996176157 2.1923947877499534
C 2.2417246153763504 1.2854758304207003 1.021917983943515
C 1.815157462750369 0.9185730542625492 -0.15749540929490408
C 2.6787625747205164 0.1309779415446521 -0.9539654948081288
C 2.3093289609329304 -0.27169361755680776 -2.152903258429766
C 0.49459562850257294 1.392313059524475 -0.4601522419676615
C -0.4247803955751537 1.0122354440401387 0.39862193817333824
C -1.3110029570665351 0.5455011840372002 1.2231741724017366
C -1.9243621606476435 -0.7045208874003699 0.9412387973167353
C -2.841425077864879 -1.2725262628379772 1.7174666935978142
C -1.5347306689230138 -1.4400299692325713 -0.2892411220153296
C -1.839680213587353 -0.5974304858785944 -1.5064119869438777
H 2.5027353595135167 0.937660458940614 2.963979786345676
H 3.251824811611178 2.5347660533189234 2.1964332591875553
H 3.648100158140551 -0.1605059153220797 -0.6144217499361218
H 1.3433878359873899 -0.008724946610645868 -2.54857383965022
H 2.9361487306260647 -0.8795009034631405 -2.806193303307363
H 0.13509911685792986 1.9844770661088638 -1.2470376338488947
H -1.4892520471414956 1.1882571066398413 2.0687572908294554
H -3.2474810699609575 -2.220019782851125 1.4203854830283162
H -3.2045652611196243 -0.8408789320499436 2.6293000176211594
H -1.9995051264685588 -2.4447968683053327 -0.34944546166436913
H -0.4097809178324601 -1.530440701137407 -0.2477289570687703
H -2.1965825081643926 0.39414165581773725 -1.1979337686153384
H -0.9790097520175661 -0.47986783512897696 -2.18435456904596
H -2.6744017512325082 -1.0988587430572145 -2.0578114135989862
