41

C -7.026812055451025 0.5815227413648284 1.8001636046163207
C -5.910762590742683 1.0058185778722792 1.2689454842144299
C -4.770952510873286 1.3365074089527385 0.7053090189379086
C -4.008524362515085 0.2726108978551445 0.12645440121656865
C -2.762771131879764 -0.0614732653226859 0.48766382611575604
C -1.8131725135219081 0.4450259007924947 1.4714592657683572
C -0.6251110034941789 -0.08269447590405331 1.621305030266816
C -0.18571731309345998 -1.202484757688404 0.8161208209542199
C 1.1751092665270815 -0.8492401959185721 0.12722909486925219
C 1.1055233489215386 0.24643227469997508 -0.5314929991368181
C 1.8172801594916705 1.1682560589306612 -1.3565415383597466
C 3.0504421893416507 1.8468060909289454 -1.3176513510129355
C 4.433995326660146 1.2896526045528287 -1.56686987014774
C 4.84446486919155 0.22055583873212906 -0.5955934491084486
C 5.932746203243028 0.31186146718647173 0.12111267972785585
C 3.8987550939916615 -0.8078800173790541 -0.5105337971925533
C 3.441676492943947 -1.8943217100585406 0.21204041070266735
C 2.1338119922059646 -1.8708427319211935 0.5046309893710644
C -1.1146290096525366 -1.7086743538901625 -0.15622527496024663
C -2.308957366612843 -1.1918318913506116 -0.3195755342652318
C -3.448243088323924 -1.4910605985352459 -1.2128064991111474
C -4.431557613798016 -0.6294491613361958 -0.9414076840529112
H -6.954683628476804 0.3020216806932145 2.828269300264023
H -7.862168517209454 0.5658304850759767 1.1489834121518894
H -4.55759264986015 2.368904576958488 0.7522298568283295
H -2.1197257911270397 1.2849559226838299 2.087834959141824
H 0.010278528574090184 0.3752517424873698 2.3903798262304234
H 0.006152287324559395 0.6769936172781341 -0.41056054473403886
H 1.2392701634110848 1.3600781989691653 -2.3392406341572136
H 3.0927465880874534 2.5582832757500777 -0.4204251298276354
H 3.0069081430129323 2.654105372947074 -2.144142302620163
H 5.121228593763832 2.131712849515961 -1.5613831410282262
H 6.630591916572974 1.1412971100589047 0.09103042145499207
H 6.184701873124491 -0.4886591425015855 0.8089575653168702
H 3.529200197784514 -0.9792474451278852 -1.5243836220030396
H 3.162944003919696 -0.029846928414816454 0.0943771360102559
H 4.006962124676544 -2.73337001811512 0.5551407941967949
H 1.8183768972065426 -2.747824859000081 1.0929759596743531
H -0.8724937998691086 -2.5504522237619196 -0.8090796745301735
H -3.4776801788798135 -2.2701273930529315 -1.9538160502078363
H -5.391611134594638 -0.609538343104055 -1.4408847615752167
