37

C 5.9864646784959445 -2.0715682605781978 0.3904381629883537
C 4.840805460219952 -2.3050757139144054 -0.21413161116361273
C 3.669023741410056 -2.448362508138342 -0.7865707126012053
C 2.768806108183264 -1.3486048851574557 -0.6968473972021334
C 1.5633071204482063 -1.3845944100611833 -0.170544750190412
C 0.7000876809719019 -0.21370786857194324 -0.11615648621409694
C 1.260228536534913 0.8711024351475203 -0.6516297031581673
C 0.5632916594654618 2.1550766731338324 -0.699768717562342
C -0.5132636312413653 2.6331212105115296 -0.1079679446497473
C -0.9024872449107985 4.051069652888741 -0.4452078537038459
C -1.3612005377486474 1.9275661206127284 0.8382842415490571
C -2.4680852309266976 2.54201762235211 1.216854000655863
C -1.1022018288764874 0.5905295904819831 1.4161419159281188
C -0.5940327249026839 -0.44387480594733913 0.5089199150916314
C -1.5576814947721807 -0.8747788885745701 -0.5373443430062678
C -1.5358445489632475 -0.271271492545428 -1.9164177723873703
C -2.4480365815738616 -1.8059482848246116 -0.23370985870799427
C -2.449720950613999 -2.3802627077153278 1.1334243515538578
H 6.723730412354709 -1.633499373105913 -0.22616837918761612
H 6.008939855935163 -2.353928851073623 1.4083442988918697
H 3.5351892290015727 -3.3943345186340164 -1.2581147208725154
H 1.248309963683441 -2.3562602156313766 0.22611010653778166
H 2.25904840038578 0.7988105038138947 -1.0621371930207073
H -0.9004056924484354 4.604294671448056 0.5119229538099317
H -0.07683788763178134 4.469324077016921 -1.0801328700977102
H -1.866946733745239 4.096241812876899 -0.9712574682471381
H -2.6772316966867398 3.5130139198065655 0.8116457517994536
H -3.166313935536888 2.1144123576538996 1.911936407608918
H -0.3602948378618911 0.7274955183471279 2.2419664495389426
H -2.022093257599748 0.21210003616484885 1.9233837856278484
H -2.115475607386481 0.6788138866183459 -1.9102561351108214
H -0.48936698799773315 -0.06370401810720225 -2.245051362205084
H -2.0531514475019472 -0.9938909415527805 -2.5804555005602334
H -3.158764808083262 -2.127244188598621 -1.0021147221595808
H -1.4551173019679293 -2.1872388990346123 1.6077847868896882
H -2.6270330825074337 -3.468655537677362 1.0408228214212816
H -3.225644795604246 -1.8581837194254824 1.724005552116579
