31

C 5.135581664042324 0.004462677023317795 1.7157541079031973
C 4.512721884895796 -0.332293020409664 0.6190039864309912
C 3.8273614725430423 -0.5486828713497202 -0.46371907371575416
C 2.9679933349189764 -0.40726565138638765 -1.4491990654288835
C 1.6426480527976697 -1.0365930486477466 -1.2911849106866955
C 0.6473691919766296 -0.0416268481929456 -0.8128307520083206
C 0.8038285901509039 1.2444691934574084 -0.5345223955388164
C -0.4594802312256474 1.8257424131300795 -0.09439374483801283
C -0.6610660841237789 3.2375287765294267 0.2991070782591355
C -1.418648741980488 0.916906482722509 -0.09109820052581591
C -2.840158663216026 0.8736000385214581 0.23324521953021227
C -3.5630283183821345 -0.2203347858915933 0.135497735339257
C -2.9502227927943987 -1.4752777711195475 -0.3164378670724803
C -3.2486212359285576 -2.6073023135511773 0.658991632139238
C -1.5268690889087717 -1.3887682761327882 -0.6306390438467462
C -0.7619711829673285 -0.31697706065219444 -0.5482161298238498
H 4.660804630954369 0.005954058022892448 2.685905432732935
H 6.17460497308627 0.29839371679490045 1.671790950116077
H 3.2147136445821016 0.1521206438705944 -2.354171490284006
H 1.32450223699437 -1.4843061179741304 -2.263749766016562
H 1.6886433753876655 -1.8843450804286594 -0.5704595458687073
H 1.7371267288446226 1.7714111712680267 -0.6253118188516538
H 0.2223100877441911 3.622392973827508 0.8681429816136685
H -0.8035918698614327 3.8550079985896137 -0.6148744974650052
H -1.5172840609003 3.3111651982382178 1.0041379742708014
H -3.327071841766502 1.7997479991884153 0.5749332181878412
H -4.633658175309459 -0.23778535228930245 0.3835002722181186
H -3.769896089954377 -2.2112716583011722 1.5649847184385175
H -2.252888989258771 -2.9791630190659273 1.0326715089078353
H -3.7872861104913467 -3.4395277464317338 0.18399316112288713
H -1.0384663918496309 -2.307382719359785 -0.9708516752393925
