15

C 2.838924415055964 -0.5100452774325211 0.10524221479497552
C 1.7492500000309303 0.1832235100716431 -0.03603210489890238
C 0.547864161517118 0.7061183832035163 -0.03936635147455873
C 0.10748352561840166 1.8993285628736591 -0.65616065141245
C -1.1065233359139068 1.6986873018698891 -0.21145989693628722
C -0.7709693420112487 0.4422094072352703 0.47198863423922244
C -1.379839974617125 -0.7884115420539762 -0.06301859673209664
C -1.6842503104664313 -1.8013365578994593 0.7149592638748158
H 3.438977257540978 -0.26647594511933625 0.9542136206322561
H 3.0151647940614303 -1.2516560353815882 -0.6481787331157453
H 0.4898268175791791 2.7358045397576016 -1.2714965574252954
H -2.0563611970796276 2.230390557275519 -0.2868175579458859
H -1.5757603312392396 -0.847235280645913 -1.1216138263123814
H -1.4823299885922825 -1.7290852595416253 1.7753869370226734
H -2.1314564914831395 -2.7015163642125977 0.31235360568973086
