16

C 3.406985944765311 -0.14642782597680204 -0.43751875814777763
C 2.332426800924947 0.5757155976710251 -0.3013603910086654
C 1.1584701883548483 1.0473501310820952 0.07750783711850794
C -0.012428845029140437 0.1836457458664523 -0.03326678169398734
C -1.0659613350938704 0.5674819407246734 0.9518203527711763
C -2.2848553188867666 0.08109853258753941 0.8620229712734938
C -2.738106082668517 -0.8634146047218308 -0.18044321582057363
H 3.903931711001821 -0.67779548368262 0.33796045868029195
H 3.7555892300188787 -0.1617305348840003 -1.4219267796822963
H 1.2465833421691896 2.0388748558411596 0.4255435464320199
H 0.2246361248006633 -0.8854294157789768 0.1434644218807683
H -0.3984359927875133 0.25574115745547077 -1.0916051892018466
H -0.828412385390363 1.2452535413858847 1.739660997096389
H -2.009792040680259 -0.9925011349644038 -1.0067282504607955
H -3.017681202931626 -1.8327230911869377 0.29143259381075853
H -3.672950138567693 -0.4351394114187786 -0.6353067674418897
