20

C 3.7386919305910964 0.4906615789177989 0.23554391254753218
C 2.9377555516654783 -0.1991699565082936 -0.5549094448520122
C 2.0745433507137365 -0.8882640599772555 -1.2587102836430648
C 0.9982337595993885 -1.5392123846782642 -0.5219246103947877
C -0.08798359787665724 -0.5439921442439025 -0.32227908814707545
C -0.4884551331419648 -0.1907018227524103 0.8874206188993089
C -1.5640419693645233 0.7943305928127693 1.1214013805379144
C -2.8202087547458907 0.4551859305918723 0.41230383661205405
C -3.7710446205564367 1.3418403770630425 0.2345206838627809
H 4.554132271725081 -0.06465681913220755 0.6044646555786756
H 3.4542373648308256 1.496533960591851 0.38930182606935465
H 2.270234518208556 -0.8870846316805695 -2.300751508107669
H 1.298072253332075 -1.9690953698565148 0.448842263214786
H 0.5648752689488954 -2.34669828824498 -1.1649269510793265
H -0.5653622466745227 -0.09525343666798798 -1.1833490127181292
H -0.00951885014836079 -0.640859146145278 1.7460207097721103
H -1.250480467554356 1.84040982350761 0.9648472780930532
H -2.9996263505002756 -0.5497134189920694 0.01073897612235664
H -3.6295706560382035 2.3426462310565888 0.6165893931783364
H -4.70448362301455 1.1530929843380004 -0.272536970584206
