21

C 4.563038845213558 2.460866524482199 0.10911476095536603
C 3.9758693254628783 1.296819639627362 0.3484846281617796
C 3.353018999244422 0.16940996178341267 0.500265692042531
C 2.1913703556046893 0.13834873900018446 1.3015143320812461
C 1.0207047787639525 0.23869592109787627 0.7086079101173786
C -0.06273154484547938 0.33618819883728274 -0.07224076110654387
C -0.43629340337941014 -0.8429167783802857 -0.8057102451886236
C -1.6848764612193365 -1.1781194760387357 -1.2273601710829034
C -2.9755591793851273 -1.306158033530593 -1.2255286874999498
C -3.8272287682918997 -0.8597544966330366 -0.13855497271862185
C -5.144990458566624 -0.9876044858544176 -0.19739770499492776
H 5.201462719317761 2.801885643374983 0.8716894174579507
H 4.301962742097538 2.8836285331821934 -0.7892913552912545
H 3.825793328265371 -0.6277356323152987 -0.03117411492556444
H 2.093076474755378 0.03209992844152226 2.3498525619046933
H -0.5262283229902894 1.3229893657109533 -0.026625522946731234
H 0.3604618296085159 -1.6609534855123909 -0.773149702236623
H -1.515114385150618 -1.7608591299801708 -2.3709573813013227
H -3.380789760675532 -0.3722358364916725 0.752435141855355
H -5.726844204530315 -0.6282012231989178 0.666091757687756
H -5.6061029041980905 -1.456393883846261 -1.0434974813279518
