12

C 2.870933180310546 0.5033765541462341 0.23788575247919685
C 1.6300070829616717 0.12059591671025158 0.10199155834150855
C 0.4820903938821419 -0.4112546172371509 -0.18809965121186598
C -0.43569698081493835 -1.4079011266187988 -0.6707557124300182
C -0.9472694518950101 -0.2765530420125009 -0.20029734759594028
C -2.2072356993247166 0.4723338281811535 0.06519893827608177
H 3.3519380421059437 0.28552644635233193 1.1456723487137424
H 3.3846261206547483 1.0191364572839574 -0.542366647936535
H -0.6058072819388841 -2.3817179204600607 -1.1061103198475943
H -2.7757155844246313 0.522897957016037 -0.9091360395044836
H -2.8213839326515235 0.01424052967189332 0.8437013009346561
H -1.9264858888653138 1.5393190169666753 0.30429303545313824
