17

C 3.6421617941069857 0.6770830041316409 0.36117405329177765
C 2.6747578686625335 -0.15256030754217909 0.6374931651942256
C 1.6707618800829636 -0.9803966927904874 0.60715399458967
C 0.510208456169579 -1.5787535613487438 0.6832733451669757
C -0.34555238201265065 -1.7944370307742952 -0.5191415195043237
C -1.5104105166170432 -0.8926625472121116 -0.402195153732382
C -1.3907857911403618 0.42316886740840404 -0.38383315054150446
C -2.524933299145015 1.3618234298286707 -0.26865944167109773
H 3.7904473703886485 1.5448512499229987 0.988772850711687
H 4.318224675945522 0.5494911270484613 -0.4718445305506226
H 0.16607651555455322 -1.925302937231179 1.6496963783597691
H 0.2697544659865846 -1.5707217941930722 -1.43306792452863
H -2.496432405099792 -1.3194202278424232 -0.3288675566332652
H -0.3914196129917915 0.8370052895709162 -0.45858170670448256
H -2.6186089776579906 1.6275322776728325 0.811617492588937
H -2.2834913657405993 2.2731933215211297 -0.8272435452272869
H -3.4807586764922305 0.9201065318293624 -0.6457467508094468
