23

C -4.7167110270051875 2.7379629113393804 0.6007793851939165
C -4.280184382051553 1.5457543535903389 0.3081640276326354
C -3.8447248082769203 0.3239656858724655 0.2865221548788805
C -3.2379950070159267 -0.8259213696911548 0.27373575064738737
C -1.7765118811082328 -0.9078022523994673 0.06706911908934579
C -1.237816152172569 -2.024827142789954 -0.29111549976771006
C 0.14873546275169283 -2.2323905076913513 -0.5208805256263558
C 1.029129357532596 -1.2705235632552565 -0.383022486884068
C 2.4369170685861823 -1.5256592498154367 -0.6278145872125123
C 3.3965115764603144 -0.6631502398648909 -0.525817059126543
C 3.1533141434083123 0.7053983359183412 -0.13994825851970671
C 4.167298005656775 1.5742720087411248 -0.04320245929732207
H -5.489084098070911 3.1819886872175407 -0.006958329867548922
H -4.350257211910956 3.3280432867784806 1.4302438900877368
H -3.813849183679301 -1.7176280449956365 0.415602387663793
H -1.2014382421376877 -0.02791245714634719 0.22244366170230334
H 0.4740523310054111 -3.240111444359037 -0.8236349909076834
H 0.7149762594877817 -0.2838132399968985 -0.087171326837368
H 2.701240164032373 -2.5545838871001463 -0.9282480498208604
H 4.434261125258376 -0.9681745640478913 -0.7366046193401049
H 2.152595516508448 1.0369931780373058 0.07303233330857342
H 3.98644262228859 2.5898777194824376 0.24319212336655166
H 5.153098360451094 1.218241796191869 -0.26062534256877684
