16

C 3.5066989839714906 0.774943100583902 0.3653225109714926
C 2.3432402131082344 0.23213999900856253 0.08254091513241975
C 1.145640025060708 -0.23611800863181828 -0.1559668784399212
C 0.022785357133877058 0.5610948695809594 0.33817305602134373
C -1.226423802925772 -0.21441432205560992 0.1311829519037396
C -1.2685336022919849 -1.5126498902156706 0.3833154961040315
C -2.468821129132439 0.4340772128385963 -0.36385394258505505
H 3.9178983447294886 0.4735171118475363 1.2916615762511567
H 3.871595375827455 1.439352731679376 -0.3720045134514973
H 1.1295870587891348 -1.1495813379923385 -0.6858960651410597
H -0.020487365350208314 1.5302601596733445 -0.1995996842608463
H -2.1819223956912963 -2.102167065702868 0.23654747348383975
H -0.35029301285384834 -1.9917043592523007 0.7491452596116178
H -2.269955760392606 1.4366830417334675 -0.7828111348598676
H -3.1866619480435716 0.5136507630348617 0.4832543104885637
H -2.964346341938728 -0.18908400612999945 -1.139158389789702
