20

C -0.9846711316822491 2.695776188121433 -0.6374267304281812
C -0.44693250601214635 1.4949658858011663 -0.5638554110496515
C 0.13780656245626297 0.33333985022545737 -0.5043578443858714
C -0.7888097397347564 -0.8020449220061128 -0.5462711694142774
C -1.8826010912298992 -0.7263751887020743 0.42480279356550904
C -3.1316177295650087 -0.8770733576822674 -0.004776732969775313
C 1.5866320573786552 0.3210720264480942 -0.4073420613094741
C 2.083459292406233 -0.3545560094692362 0.8411555009921664
C 2.8702046286296965 -1.4204713994252594 0.7367523127769464
H -1.0912625299335448 3.0604663528999665 -1.6204287056724056
H -1.2248428048056903 3.105183434003272 0.29978443562078116
H -0.24348916256074385 -1.7535830102870338 -0.5646812261056049
H -1.7490628808248914 -0.5516915135234228 1.4995627530251388
H -3.9974345741553825 -0.8320071991897328 0.6676157522173124
H -3.3672050204821353 -1.053516890826936 -1.046265109530774
H 1.9729835279673256 -0.24727551967926328 -1.3051325085269316
H 2.0736499319538053 1.2918602193006967 -0.4453014466678126
H 1.8006813571843003 0.02680117389224429 1.7976857711728378
H 3.1524850754267417 -1.8011166210207052 -0.24692654073327128
H 3.2300267375834433 -1.9097534988801905 1.6254061674233105
