40

C -4.622508387413412 -4.518203847910074 1.4334984832336868
C -3.971388966912281 -3.4086332031633555 1.2224252408979803
C -3.2687944264403708 -2.3290932953590193 0.9219264492860556
C -2.4436218634750917 -2.398586983609031 -0.26527103309286165
C -1.163817227642273 -1.6938779752695672 -0.22577976428679192
C -1.067886806691953 -0.32944516476160435 -0.32072861908973876
C -2.2958179752995997 0.37240614265491906 -0.45838540886988643
C -2.5907496797463283 1.6357438300617768 -0.6045131144037529
C -4.029623081773782 2.0073628004749273 -0.7145172687943998
C -4.383194327397056 3.264792660734206 -0.8628482226404732
C 0.2652478401701894 0.23634196765861964 -0.33118683116112535
C 0.5644307336013604 1.5320463867638987 -0.011855721332951112
C 1.874988712090436 2.0355812780535096 -0.13614880446089273
C 2.896009612244643 1.2308523873921435 -0.5829941461195486
C 2.630473393197468 -0.07658630588293534 -0.9106639195142328
C 1.3266704931078057 -0.5468617035539696 -0.7796511054527233
C 3.8499609939058996 -0.7367958219766702 -1.355499806849678
C 4.829364285227234 0.12527648019106705 -1.3055724176446495
C 4.344480243447348 1.4260442322483564 -0.8251357881340076
C 4.995303219044552 1.8263996270178164 0.41143466771716114
C 4.931377476526178 0.9931786057327839 1.417382891771523
C 4.811408831565766 0.09108985919574585 2.3651608726793176
H -4.112475977670424 -5.232601297242583 2.036145448880573
H -5.5819002400731526 -4.571967787577316 0.976299729312552
H -3.4106580723500954 -1.538311505256654 1.6118769798883599
H -3.011230313030755 -2.165403869497868 -1.1615688996653815
H -0.2770251438773692 -2.275456698454531 -0.09824574148908413
H -3.2153437798574487 -0.3024693116146597 -0.43611772928044534
H -1.9228570482415344 2.461057261549953 -0.6866571310799453
H -4.747732625339338 1.2330332424892725 -0.669571973787812
H -5.415260881494405 3.5221527835122313 -0.9407979371616061
H -3.6374547423019816 4.032499073134677 -0.905757091864484
H -0.19510558533590008 2.183052154314382 0.3895285154508049
H 2.0526001411863755 3.0633297232734376 0.12757422949908837
H 1.1462453328076119 -1.563890636510032 -1.0583344675970476
H 3.917341680995982 -1.783625710525401 -1.6755699058666558
H 5.854788926741006 -0.09869396409664538 -1.5827233008552986
H 5.531467685525122 2.7206565759760184 0.6286195662393226
H 5.587001535368867 -0.6289621288778388 2.3877717721797014
H 3.95528601561045 0.206570138710195 2.9764513034592484
