19

C 3.951596900721822 -0.39142093593292737 1.145682815609958
C 2.907370850451896 -0.612430816323988 0.40065898469854955
C 1.8070817310936222 -0.8000752895529644 -0.21576972197502253
C 0.8377251277955682 -0.9806644426935623 -1.0327733495909555
C -0.406725255348964 -0.20549967360936125 -0.8454552606719296
C -1.3843454173642222 -0.7127808344210173 -0.1420926229451975
C -2.4295565142232243 -1.280602315227511 0.3793432838986349
C -3.367317570353647 -2.1253964455793413 0.7445356052736705
C -0.4736619914283539 1.0871019274197453 -1.458704453941717
C -0.6414646177565293 2.1039139902135684 -0.6478877413606263
C -0.8108556290220705 3.072023733175189 0.234214267763841
H 4.773767395539361 -1.087553803674696 1.0436585438061572
H 4.021594647278286 0.4407574776024429 1.8424710354643818
H 0.8323983702910687 -1.6597576846641853 -1.8696985260876111
H -4.292923503488729 -2.252108443175991 0.22409171762053723
H -3.182852876077844 -2.726685491911958 1.628751080829626
H -0.40765901291105294 1.3516433679183193 -2.4794637611580064
H -1.822957216638172 3.29970036919007 0.4391703501988408
H 0.08878458144106821 3.4798353112480966 0.6092677525668665
