39

C -7.167665217511245 2.9314696916677567 -1.905538944590259
C -6.828806560847084 2.624048372182671 -0.6520592222120042
C -6.184596244533862 2.2212758686825538 0.4113273551920429
C -5.023385360481792 2.9744904175241786 0.8020343778321389
C -3.7157041666249757 2.3617779700556065 0.4311197664394803
C -3.538398894343417 1.0121789199496158 1.086172114378349
C -2.5329585897354545 0.7618175955291581 1.8846187667720165
C -1.5505175021802555 1.7503148922271377 2.17347607329754
C -0.4954127384873803 1.6852324901911988 1.3939819167498293
C 0.3661291755414651 1.7333440518128735 0.40592184399315756
C 1.0769584899045561 0.4986427004064609 0.2247708635689636
C 0.9358056789354522 -0.18800675304437164 -0.9157089123639907
C 1.5649391257323637 -1.4340747680093116 -1.2675351890613813
C 1.5060022552365722 -2.3941659926296786 -0.12058675534665642
C 2.693369626621179 -2.8256163036450523 0.11703079690942257
C 3.694047888282428 -2.2305404013814116 -0.8147358941794728
C 4.984350828575649 -2.4217594794441974 -0.8445584320924154
C 6.336274500968781 -2.627132219389312 -0.8546816613221507
C 7.736393567488289 -2.824265576607319 -0.8789962411154384
C 8.452999138041863 -3.487616977055383 -0.1211554745450205
C 2.9743296000016994 -1.3879785579471904 -1.646376129134541
H -7.203517837212004 2.1441912515996804 -2.5834787165582895
H -7.35033920492229 3.997787817017747 -1.996718965720374
H -6.611684130692145 1.3745951554003302 0.866974408836368
H -5.049060624819817 3.3741921451905785 1.8137277001468732
H -3.5119244782698797 2.318386245660196 -0.6592792621275935
H -2.9261360618920267 3.0315981993719485 0.8639039260849178
H -4.2812770464702865 0.28234056503338034 0.8417584708145116
H -2.4548776066840494 -0.20225564756424358 2.3395115618304563
H -1.4768886017089538 2.5156023379715773 2.882727320726614
H 0.41552816682174915 2.6504879920762767 -0.11142721148089005
H 1.7325871802581085 0.09606612556329032 0.9387269166893925
H 0.2767668455341833 0.31403920496632287 -1.6555935283687075
H 0.584159125821689 -2.65296431826954 0.36559416756864327
H 3.046524259685389 -3.5428477965450624 0.8951482628313435
H 8.280330247492191 -2.329683351303321 -1.7629975228091044
H 8.225584446501081 -4.111844815536386 0.7779397786185288
H 9.575579016024916 -3.4934523087258675 -0.2985009211089713
H 3.4444916961373266 -0.850806986953558 -2.426537404308883
