22

C -3.991343441747632 1.3035122959053755 -0.0822264485805193
C -2.891146195623206 0.6276461561880377 -0.25951127387186756
C -1.8691595434804311 0.0436243732847388 -0.8019074504381213
C -0.871754758735693 -0.7173355343034734 -1.165113537652201
C 0.2219878996101293 -1.084176645695181 -0.21131124373117124
C -0.34234027366143577 -2.0305735156669957 0.7887671231585002
C 0.7530509774193153 0.19161665212039697 0.36826021240498297
C 1.2674759944650247 1.0159347878757208 -0.7613377157223643
C 2.544309510592458 1.265369253811223 -0.5774590508421181
C 2.9493960237527173 0.6334668936416827 0.663282112314612
C 1.9344980798455067 0.014704384306159949 1.2163893406760884
H -3.960613169699513 2.1628252398733565 0.6032963705703428
H -4.929221232681406 1.060424517528812 -0.5752282948430115
H 1.0319667317726091 -1.5475629023750666 -0.8289440161463592
H -0.006462096226073671 -3.0695970414099194 0.4975909674399035
H -1.4685016083014366 -2.092581822027886 0.7243553643188131
H -0.054913574071100514 -1.8381623776242908 1.8314412467885883
H -0.06997744458016467 0.7144632772167538 0.8912865033851112
H 0.6487693597677986 1.3327395383331178 -1.5782946364657395
H 3.145863822596176 1.8500083113449155 -1.267665910018635
H 3.9891837525134703 0.6913794602770031 1.0545053307700922
H 1.968931186472903 -0.5277253026044986 2.134528894060107
