44

C -8.232358764010673 -2.1932789070517638 0.815265502315993
C -8.4532894335932 -1.1524620355203086 0.03999673450488766
C -8.613906624603521 -0.06399306331140504 -0.6618309816576208
C -7.988854391543456 1.1205607442684355 -0.18847900271451062
C -6.904676768121642 1.498295286696158 -0.8384263091985362
C -5.7908088887795826 1.747209161489194 -1.4912564904696346
C -4.5930042623096865 1.1069047377947627 -0.9556848738321838
C -3.410704842071239 1.6340358527963488 -1.6226910162341948
C -2.629418364913463 0.7360178970346258 -2.1906900882166314
C -1.8616667114366408 -0.23126341777249435 -2.6354813920941447
C -0.8989275189516018 -0.7499723208019781 -1.7020439725567622
C -0.3123446615461474 -0.056310059290210546 -0.7730148575871899
C 0.6468556895145778 -0.6968227214937425 0.11284912374425393
C 1.2589387461731667 -0.00668595728600375 1.0702524776792617
C 2.2292637462838174 -0.6292344917152779 1.9754478205234267
C 3.6019032902581984 -0.2540763059582268 1.5073568073051116
C 4.428433171796099 0.5611688688317599 2.115797741645511
C 5.6368073474281495 0.6251969418240458 1.3015349636087843
C 6.7024764654222615 1.3493360502446237 1.5920565428422109
C 7.8267367323945916 1.3071921132303446 0.6808192222895467
C 8.345527547747604 0.1313572073268359 0.4701474595455436
C 8.816098613945734 -1.086477732465997 0.3067087258853343
C 5.435524762097566 -0.24000938865002874 0.14625029314315202
C 4.224173809654638 -0.750627313721567 0.28811321539204393
H -8.946940005680018 -2.32843867022027 1.5843489834082467
H -7.369397434923338 -2.753127877522234 0.5643903972355981
H -9.217322757992013 -0.20541357462367302 -1.536248579116789
H -8.235315479259224 1.7680967321652592 0.6045838779057856
H -5.915808266366028 2.3816973342224554 -2.3231365755409152
H -4.589710298705996 1.2488880455224527 0.15133373013072682
H -3.059555857826829 2.620997516384795 -1.7346726919882465
H -2.0551960807547616 -0.5059214695447589 -3.6323187712182654
H -0.6568186820547347 -1.8071724771339333 -1.797999854241935
H -0.5224968007320767 0.9926181249523119 -0.6428878501339826
H 0.8821420864395279 -1.7611105103431142 0.006416778803370092
H 1.0420102374937303 1.0453530854508386 1.1936307616611141
H 2.08001317474393 -0.41425213470955424 3.037600307183841
H 4.236285394815061 1.0744853308528108 3.0361070298951702
H 6.7188239124288724 1.954185189496267 2.493446062987779
H 8.28521340361932 2.100626547633962 0.16213747558829772
H 8.369742170873042 -1.6275752052268897 -0.4859898184716355
H 9.575988660208608 -1.3599609306671336 0.9899948226018412
H 6.16006209482086 -0.4021722612631321 -0.6449441573193516
H 3.7555018380141414 -1.4326025110932323 -0.38878957523527313
