24

C 5.023797938137138 0.5954080583268203 0.3417578243305687
C 3.883366894406558 0.9859653837955469 -0.15620361999707855
C 2.6973812216057733 1.2982551951173282 -0.6378285813874965
C 1.7159612817604195 0.2564855981249004 -0.6288923567923463
C 2.085056573335484 -1.0493655253064487 -0.8360464392703532
C 1.1001271767110754 -2.01725573153492 -0.8177505971095274
C -0.22309203780741174 -1.6835395247989546 -0.5970184766600093
C -0.61685416175983 -0.3824277966391138 -0.3870653100388513
C -2.007877847441522 -0.010391083716765507 -0.15247853237365502
C -2.449581608344017 1.2137006166564455 0.0547733453151638
C -3.9086235116924555 1.156967049585998 0.24717874674983173
C -4.2410643539015425 -0.26212047155973145 0.12222186076991831
C -3.1194850281695565 -0.9281619090499408 -0.11086707937566924
C 0.38901294823121074 0.5753398949177875 -0.40943602378319427
H 5.1372156155139015 0.732390707411291 1.3843719218010573
H 5.704846092574814 0.18186691992277093 -0.37276262652008724
H 2.6242751562509787 2.296705643940002 -0.9744244506024784
H 1.3582363896219445 -3.056161572627635 -0.9777087209317971
H -0.9897156239274275 -2.4554439755223636 -0.5850079627863054
H -1.826378142120559 2.0873556663889876 0.0745601330703289
H -4.163376483828345 1.5666511311428613 1.2682482670240405
H -5.2384755491336294 -0.7124630153705952 0.20434462889898625
H -3.0673696543060975 -2.013749779420809 -0.24829840343698417
H 0.13261671428307673 1.6239885202139241 -0.2485463728975407
