30

C 4.229563035734426 -1.575473190595097 -0.061693618428056755
C 3.4083844003822734 -0.5551708544942764 0.008103083927978651
C 2.5271002181819364 0.4003953316915511 0.10259876127990454
C 1.2449182228816655 0.039756800064865656 0.7467544114356868
C 0.8583400303825574 -1.326188447620466 0.31037116651107055
C -0.6279524679606117 -1.5186074664783467 0.1299578545998818
C -1.1442092809671849 -0.4870466672375995 -0.8185636420992005
C -2.5937692701070154 -0.6209751393386019 -1.0703750760763737
C -3.322186690084646 -1.5498213424623417 -0.43536926988646063
C -0.8317835690402378 0.8909242255797221 -0.29244908876599335
C -1.7895684727449181 1.9876694105434638 -0.5988187991617796
C 0.26333379007312496 1.0970943371089052 0.4163903792711302
C 0.5316322429074819 2.471456966405483 0.915102661989726
H 4.138819675373093 -2.1671708773088407 -0.9515410601146644
H 4.873396910305932 -1.6849039013719176 0.7656532350915183
H 2.8290664220234856 1.3272561355042858 -0.2927348377142208
H 1.338627445149179 -1.6589074939482382 -0.6346923479921254
H 1.183800660379967 -2.0871737343767416 1.0779409444566073
H -1.144883154857186 -1.5086613829257731 1.1119301520904008
H -0.771626884436319 -2.5236804026430115 -0.31702874875861586
H -0.5901471417558377 -0.5834622285238333 -1.768261542543192
H -3.0847627151706103 0.03778375383148862 -1.7781206115069115
H -2.8602916611154536 -2.2207802997233466 0.2756399671615867
H -4.382691813340953 -1.6348556514616248 -0.6309955640962348
H -1.6025231526966917 2.4260955955335466 -1.6074968145142596
H -2.8250855900508123 1.6393975735423014 -0.5398764149251821
H -1.6919163428364383 2.8169352386086737 0.14921692791531826
H 1.5953724157041316 2.6274772857137543 1.18916562637805
H -0.06297381493816523 2.6983399249033737 1.8310893401083663
H 0.3040165526240498 3.242296501478407 0.13574712108505368
