29

C -5.723263195843282 2.8899727106557704 -0.05504659149362973
C -5.114976579837763 1.7291613709026497 -0.0036238435023188344
C -4.465327551339134 0.6015894897456596 0.10403262882088991
C -3.23183656446408 0.6467217023392475 0.8316406066937815
C -2.196344382369683 0.11131808667791833 0.24963063293009957
C -1.2283789112614965 -0.5357680709191309 -0.3755540716286684
C -1.1366137499444198 -1.9325562330727395 -0.09934230458831604
C 0.03471784889284707 -2.516409552427935 0.03542160252416343
C 1.2385566876269463 -1.7268710192651877 -0.09931936041918732
C 2.407144249719617 -2.291730327078113 0.03166610596195953
C 3.699130916676352 -1.5638422989409304 -0.08944907589731947
C 3.501471670007553 -0.12149389471636302 -0.3764676194242248
C 4.1066949758809415 0.8095449258910841 0.33839254576600813
C 3.9103434436205573 2.245521712494753 0.053158129132047476
H -5.460813157774407 3.4874762749450747 -0.885586938303856
H -6.401431372101704 3.080508329770884 0.7462286285755362
H -4.937503143702521 -0.22657858862612187 -0.3685016384532951
H -3.0246882820608256 1.0558606928852134 1.792902805756756
H -0.6503600048076066 0.08555426705872915 -1.0035291469442418
H -2.037012737575831 -2.5310662928581276 0.0030124903365511733
H 0.11866051323271032 -3.5700255898597297 0.2441116627218703
H 1.1933505722455267 -0.6559144063138197 -0.31068387862159835
H 2.483327086627142 -3.343446586260304 0.23977391676564977
H 4.248878363764942 -1.7262903989968228 0.8462462238375754
H 4.266292528858771 -2.045914992385751 -0.9143385795134945
H 2.8420543949415475 0.1573034053100658 -1.1949938381366487
H 2.8348789332162165 2.503593608196741 -0.0921902532169904
H 4.416144933848284 2.494260858659954 -0.9098772922397531
H 4.3069025139226 2.889520816187364 0.8398847631742874
