19

C -4.30600394279589 1.8729139223707902 -0.24520216306390774
C -3.689462590287019 0.8058768232020959 -0.6795513301968776
C -2.8231166869225683 -0.15776172981231232 -0.943540852211056
C -1.4976163593712246 -0.1144378700850341 -0.22940965333610222
C -0.6884059289255431 -1.262590867682859 -0.7519122197431619
C 0.6102234856091859 -1.2384986986817845 -0.06727759927930617
C 1.68873468008874 -1.2128385412865372 0.49522901000459046
C 2.9292617034450745 -1.1984725372585514 1.1639090915668076
C 3.784648681475588 -0.2748630720529444 0.8002995317649649
C 4.591128229915468 0.6803548805665316 0.38114826004808405
H -4.2025278210302615 2.8173466016913453 -0.7340197327538603
H -4.928622379033115 1.7968751668590304 0.6258204672932598
H -1.0005966558852357 0.8678416974621099 -0.37196396277758575
H -1.6661230971298537 -0.26655301478373206 0.8417618456070007
H -1.2463679502777885 -2.191828544169023 -0.5662452002206712
H -0.541089597514299 -1.0770627804021877 -1.8534576987073106
H 3.2734185786474987 -1.8378627644954033 1.9301016847357855
H 4.492396266341142 1.5933994404096425 0.9059322135281788
H 5.220121383627562 0.398161888151796 -0.4197186663033457
