11

C 2.1836691544480944 -0.18329730982651068 0.3198382666812959
C 1.2155182316191433 -0.6070402777007586 -0.4620971884024594
C 0.18368424727930954 -0.585102328889558 -1.2848223256206746
C -1.0250151338253959 0.15137914616968004 -0.8582680712981922
C -1.609920998994133 -0.3841699506659429 0.4217708569814927
C -1.1729086633204038 0.8854720067118401 0.31660886540497113
H 2.869294522080574 0.5975464959815897 0.050920020585915854
H 2.2843972564054447 -0.6488359388273056 1.2816696363262308
H -1.7948447819871671 0.21767281219278176 -1.6608170451965896
H -2.0441348009373885 -1.2308251439409656 0.9323892267959553
H -1.0897390327680732 1.78720048879515 0.942807757742049
