20

C 3.484479115322408 2.6328350107871956 0.8689193072831959
C 2.8006058427803655 1.9001083450937386 1.6989701373057529
C 2.059721538266848 0.9302228796939525 2.2180734868544523
C 1.738545140041844 -0.28655222567953115 1.4171559799650466
C 0.4469231190769766 -0.08533899136404681 0.6137577749022478
C 0.2557653802535761 -1.3794815153556594 -0.13349337318687915
C -0.9439042041508898 -1.558256155870739 -0.6487161417272359
C -2.2008128409169325 -1.5282332694780951 -1.0109578569821172
C -2.5192897114879704 -0.8519396355685523 -2.2482725090502655
C -3.7672329684100614 -0.8060518302222668 -2.6355032138455723
H 4.55027662600933 2.532146993231039 0.8564198196612535
H 3.019167872939747 3.3265788106440755 0.19983725786142037
H 2.5755684556467933 -0.5375371813419948 0.7339738221068899
H 1.5896010489174612 -1.172921280498414 2.0618747732716103
H -0.3910086462532214 0.07508589383306384 1.3178984333049728
H 0.6163161859230688 0.7454409869905643 -0.082259716256396
H -2.959966847627667 -1.982648837385123 -0.4127618983653296
H -1.774809670231096 -0.3774549663891445 -2.876987081074327
H -4.5341317250256665 -1.2608075768815687 -2.0461212522966417
H -4.045813711072304 -0.3151954542377306 -3.545299522119475
