17

C 3.2326691257615634 -0.060380325566290305 0.061704623090885015
C 2.05222007414579 -0.6218260231787714 -0.026758632604359508
C 0.8556986419786665 -1.1183405029283442 -0.1314533666007268
C -0.20929441318130831 -0.19830264891020943 -0.48503725603598175
C -1.559147218813728 -0.8298345985420745 -0.5419820562604397
C -2.4808115886589985 0.06855047128773464 -0.19006625102454303
C -1.8355531668727711 1.3746107682652369 0.13231680131124138
C -0.4217678306775454 0.9116923402405984 0.513082734053577
H 3.4867558184589007 0.3093283548478755 1.0151953240723144
H 3.7900879481571588 -0.04913989481006027 -0.8540144140204162
H 0.7768967788058474 -2.166846330979662 0.05585256471881981
H 0.04171704259755095 0.28764187997859464 -1.4539073000586813
H -1.7302179197823013 -1.8670710834127955 -0.8305253846553293
H -3.5328397623468795 -0.14259515244586596 -0.15186546430915718
H -2.332167380913422 1.9012350312855348 0.9485927805472727
H -0.42891363823746 0.47924591057702454 1.5449546748040173
H 0.29466748957887684 1.7220318042914982 0.3939106229715
