20

C 4.835708833244249 0.8867323634993659 0.1538482467443868
C 3.915135094548621 -0.05909177226405432 0.18360455122083175
C 2.9565167362591573 -0.9520569921016815 0.2865771598434512
C 1.9711525572301145 -0.7191363063419303 1.288964309496482
C 0.6808043414045176 -0.7657400109823511 1.0232339045140895
C 0.16067390012013114 -1.0501354406067989 -0.2761815738944593
C -1.1494505413244802 -0.9908017536148406 -0.39802835870412323
C -2.4466449508352843 -0.8030832904120516 -0.44910139231698737
C -2.885663857842378 0.5148368951224532 -0.7492154407271386
C -3.8203882961617612 1.0141564795588898 0.03160893603502437
C -4.754715440670719 1.4368718748489073 0.8600287765347109
H 4.60804527649355 1.6923240320738402 -0.4913847884940459
H 5.666650538737077 0.7025757648208018 0.7795225899641496
H 3.041717532656798 -1.7503305960614433 -0.40630511044932066
H 2.270775467910936 -0.4971873984882866 2.298336052548787
H 0.651463492513248 -1.3038599612549455 -1.176199559044315
H -2.9978645609027414 -1.6842765529907873 -0.2528545486101502
H -2.5753782313757227 1.1759303604779376 -1.5173586412950633
H -5.742585937531689 1.2172429474405604 0.5514081003291876
H -4.385951954473767 1.9350293572760553 1.7163699838384434
