25

C 4.022858654657651 -0.07237036464732356 0.5460011306076099
C 2.8028775608450767 0.39572256879217693 0.5274495396142539
C 1.557493889368295 0.5922055672624053 0.19500817893773442
C 0.6213662838293033 -0.5022380432983551 -0.0927728588874928
C -0.7719323362769853 0.012161810002862972 -0.33431788012445374
C -0.7642250785071824 0.9709165853042487 -1.5320203947233657
C -1.7099037896705422 -1.093945749995123 -0.7082287605591568
C -1.7882777603446314 -2.125476826408571 0.3751289312685154
C -1.2282891649240248 0.7468176786128082 0.8417758070758745
C -1.2281329696716676 2.0661247681054125 0.8497583634222566
H 4.337736095957365 -0.33364860710903654 1.5008339254866592
H 4.640659313742802 -0.18392998816678036 -0.31041528000845714
H 1.2871944112107747 1.5939405247588372 0.15097742719488047
H 1.002584324449003 -1.0791264873475765 -0.9551629125737391
H 0.5625131583224636 -1.1373598885038885 0.8380924184149062
H -1.7009440374160272 1.5345763296579162 -1.563816513205901
H 0.10974603774353613 1.6177015407865736 -1.512645678372026
H -0.7240088015630798 0.2928324888575893 -2.4281698174430026
H -1.5094858535071953 -1.5269779361312013 -1.6930604370339626
H -2.508551564647157 -2.91170006285658 0.005068718139455368
H -0.8112877377689799 -2.6142735364775715 0.5647081246420179
H -2.1687892017214847 -1.6712081813632147 1.300033922394576
H -1.5749622565470265 0.22628287643120826 1.7294299501284542
H -0.8849288098156646 2.594884583146069 -0.027874859435929183
H -1.571310367743629 2.608088350586883 1.7342189550400524
