22

C -4.2719011760906875 -0.38827831446113775 0.06093492692167329
C -3.076904112176979 0.17930340049396548 0.0453199341929341
C -1.8647535491374305 0.645969996006283 -0.051691790066337305
C -0.9406288302838062 -0.037351495453909665 -0.9498104705954621
C -0.3129063244821852 -1.1917884031063786 -0.16322018822985745
C 0.4159778364425799 -0.5762286821769509 1.0376485001997673
C 1.4416935947753657 0.3407428054350649 0.4855118923136606
C 2.6476165438456207 -0.12185640031822068 0.2242930189805082
C 3.654309287799564 0.8063205908768406 -0.3247132203850111
H -4.383516513814781 -1.1469883184299563 0.7886274026293513
H -4.9432669587200175 -0.0013483284921374026 -0.6577159842677905
H -1.678119613810023 1.5002577995929252 0.5539434537753125
H -0.07964746206294872 0.6064085465861986 -1.2625074985178917
H -1.3866702756115366 -0.4407814659577478 -1.8594399147015825
H 0.3919935648451866 -1.768792768456449 -0.7588070826480157
H -1.1233528347247956 -1.8432220255101648 0.22267358330327058
H -0.29017766409264634 -0.006658254288321293 1.6677365719868091
H 1.1550988975500291 1.3618836151279115 0.3181601835331549
H 2.9059370498818966 -1.1574885334738285 0.4041499163015046
H 3.8981915362263906 1.5917755032975858 0.43163892673428633
H 4.604948826025535 0.3163279832570959 -0.601996535415428
H 3.2360781776155965 1.331792749451225 -1.2142382885280438
