25

C 4.4447779648531744 0.0005938115133251547 0.3098206046897198
C 3.4007000504040006 0.8067294372551552 0.20497004905195
C 2.361796486362771 1.5774441186458434 0.04416801903347968
C 1.67180281384303 1.4389219662707238 -1.218441287294663
C 0.8283011150160312 0.4387753739235552 -1.394994789711123
C 0.5809896192790812 -0.5449062140620221 -0.3107592997279858
C -0.8575973388722905 -0.5354806182672311 0.06836112738906407
C -1.9888306894127004 -1.1940657331797087 0.18138364238836496
C -2.7585103156250566 -2.453450910613354 0.03280171614206216
C -1.9962656146288764 0.23379998711214445 0.5801956714613092
C -2.567314634161815 1.2410845027376853 -0.4098011146705878
H 5.350357429720647 0.4171976901105717 -0.039178417270055874
H 4.221788209449785 -0.944180307145821 0.7270841249769672
H 2.1389185413330782 2.2180616699033684 0.8542833052284787
H 1.8648280649109759 2.1645350533190966 -1.995335743265641
H 0.32278647614687633 0.35460277378010857 -2.348575928516916
H 1.231084420776019 -0.3243417056621923 0.5514092839256566
H 0.8942732691322336 -1.535905149938071 -0.6993294212549019
H -2.98165032587149 -2.8895716445975066 1.0422749004409797
H -3.731059170579499 -2.2071191036039264 -0.44988740193257015
H -2.1939089525992452 -3.1847172078910333 -0.5715858404576677
H -2.0094581156837115 0.5098348649261395 1.651295912965485
H -2.8535681473249435 2.1467672407852 0.1519903455680392
H -3.4973391677441756 0.8123481345376703 -0.8576577765347427
H -1.8769019887241725 1.4530419701402435 -1.2318783421271107
