18

C -3.266942644858241 0.07223050191386689 0.0029420172257942374
C -2.0056331840389467 0.03624026704596754 -0.26466759476418034
C -0.7118794140714841 0.11053192395189806 -0.29703986302094404
C -0.009916612325649131 -1.0192384529355039 -0.7515173916578144
C 1.4484341539341905 -1.0465476255279904 -0.6739298374181929
C 1.8883937942022304 -0.3284896381591793 0.5711353411757827
C 1.37817554215125 1.0720152789657507 0.6605227492679931
C 0.023717528384677684 1.3049990626244423 0.11638348408810349
H -3.8807709945060083 0.4062510385911419 -0.7606084050152669
H -3.6597635896781915 -0.2152834805904411 0.931694297981932
H -0.531375043167922 -1.8891419135788023 -1.1377163343951906
H 1.9262358609649515 -0.573366199361791 -1.5580993882034546
H 1.774869046158484 -2.1171107943608676 -0.5933663427079369
H 2.9707643073465118 -0.41797006810615384 0.6628809765393915
H 1.442758945659104 -0.8945512479786082 1.4371843405772096
H 1.6285378209173 1.5950673836525282 1.5748440416051952
H -0.5444957997124753 1.9273074148693647 0.8650382035448945
H 0.12889028264007338 1.9770565489843153 -0.785680294822945
