27

C 6.3937725816590865 0.7935640287505898 0.5998207902315715
C 5.356958527349585 0.5262161779695792 -0.17749670575853602
C 4.311322809255926 0.21378413798586962 -0.8893386172068762
C 3.4090637018009384 -0.7286298685943207 -0.3356069339877545
C 2.3393842080160474 -1.0066301920227267 -1.0463193484704207
C 1.2532894261048502 -1.1263435697833604 -1.7826671513656034
C 0.17667459040086575 -0.187505583751988 -1.5027050817444492
C 0.2427119963333466 0.33388220228918364 -0.0920622736646876
C -0.8901958540990473 1.2778491391944367 0.09432626851969109
C -2.0853258289002423 0.8840953753133518 0.4469613638230218
C -3.318666414130947 0.4731869237585075 0.43345787307303096
C -4.556631909275845 0.08318667342100843 0.49908688577072957
C -5.1042771913093015 -0.42855150733412045 1.7680996937945714
C -6.354490646200207 -0.8187869041210748 1.8211392356175466
H 7.226792911157353 0.16460388989480662 0.441237436122094
H 6.237199710275757 1.5974708320993873 1.2669523177010966
H 4.229955807694838 0.6935658895796755 -1.8198471259269478
H 3.450283856897209 -1.2550089900653083 0.5695060010084374
H 1.3162036957705008 -1.904433297177355 -2.4916359026666797
H 0.1716557760749392 0.6432369913964159 -2.24890120204402
H -0.8016513260344754 -0.7013156902241953 -1.6262658844312212
H 1.1993574772521707 0.809911870904959 0.15195486465833338
H -0.7684565970828794 2.3492236625421867 -0.05737491887834371
H -5.187249096565863 0.13204482710026233 -0.37229728563069675
H -4.496829946493678 -0.48829483045572963 2.6538314769740263
H -6.984170655045218 -0.771547446219109 0.9567076429884112
H -6.766681610905751 -1.1938735431055871 2.739436581493534
