30

C 4.476048087952177 2.387495112051692 -0.04633718334279565
C 3.882568378921972 1.480385217515905 0.6754736515877154
C 3.2176764231349164 0.5657428154601877 1.3391830037130283
C 2.0170742192089084 0.08022097939822817 0.7221119583414896
C 1.9262494911626367 -1.092479590763861 0.14412285670067612
C 0.712665643956934 -1.5923315826921494 -0.48366838660794853
C 0.71708670217383 -2.78491966026675 -1.0416942462418257
C -0.5153847769829133 -0.7901263604118179 -0.506440410745054
C -1.608714885099595 -1.4897677404163883 -1.2897778741959787
C -0.9388283226556094 -0.5123367618312974 0.9013928576328821
C -2.1830194941522794 0.3009481049460163 0.9782349613470247
C -2.495889287551956 1.248697613577605 0.13946579409084392
C -3.762491545755616 2.006453367500508 0.2987243037451299
H 5.196165500909651 2.0143830286051685 -0.7489786460825917
H 4.181603619109803 3.3949565907723187 0.1388574304989897
H 3.6595373025952513 0.2987315913028178 2.2602305462249124
H 1.152439552808909 0.7619988148130932 0.7586429606770507
H 2.833401384424916 -1.7124259858713797 0.14867954303831998
H -0.16309473010243855 -3.1807322171256014 -1.5126274142573302
H 1.6182808968081084 -3.3982382814843026 -1.0373411405825184
H -0.3062115947129847 0.1874640612705962 -1.0132064524131987
H -1.2768188820953925 -1.6817762899508217 -2.3279939827494647
H -2.517388268993789 -0.8318469377608552 -1.291422535332103
H -1.9258968298576717 -2.432650252145053 -0.815989339675355
H -1.0117893904556379 -1.445736851378431 1.465065004745567
H -2.8493431672433998 0.06451642239653083 1.7953415040981227
H -1.8394700273220617 1.4892101498570594 -0.6740711537309874
H -4.452186310998442 1.4378362348992137 0.924136269907376
H -4.171464615225135 2.245694969150946 -0.7083343426375124
H -3.572805073963825 2.980633438580841 0.8082204622457211
