24

C 4.9921573735192615 0.1654569733641489 -0.2071402065562979
C 3.819779177417462 0.6087700933039257 0.20716487264674646
C 2.660996686339673 0.9780927406085501 0.6207226922984886
C 1.4281300425933874 1.1486102500595299 1.0204020476843236
C 0.47346691736421187 0.025652404337353097 1.1756185918507411
C -0.430857616780143 -0.0985449555536221 -0.004247119824215271
C -1.237383037998192 1.1714138113044534 -0.19154422494283999
C -2.413882162806703 0.681326702480352 -0.9848426385422525
C -2.5951078025162513 -0.7823123680802944 -0.6668424451195522
C -1.5216098214862201 -1.0793314937972558 0.3238486194654649
C -1.552271819530152 -1.998167561258738 1.2605583391495188
H 5.79306656407229 0.8563908831324856 -0.4126861905761742
H 5.1866047101132216 -0.8874007500138807 -0.3522214481542586
H 1.118009401060209 2.1486248011868954 1.2385945713026725
H 1.061756780984872 -0.8871180086542845 1.3248758698909542
H 0.08697606268159352 -0.3907998362001777 -0.9405909769303209
H -0.6557554623407683 1.9588064931568976 -0.7133721288530717
H -1.5514589996548962 1.50846989296845 0.8314445823575423
H -2.1876570176198373 0.8635354798263662 -2.056873544701906
H -3.3547373273566845 1.1938148710780039 -0.6846582511662705
H -3.580483234310112 -1.0211969436404462 -0.2607566258225354
H -2.3974331841070495 -1.4135412714153046 -1.5703632417877251
H -2.417638879064611 -2.625245448280102 1.363679110852312
H -0.7246673505746609 -2.1253067599132973 1.9183381777856852
