44

C 8.164253377968105 0.6628925633989458 0.9140750287744485
C 6.925396432395825 1.1151583930354831 0.8779806003706968
C 5.676997185892364 1.5064747730740824 0.7495595879300322
C 4.961313096443094 1.0453224765093372 -0.42823131912669166
C 3.4483383207890883 1.0241696472922461 -0.19208079713206974
C 3.207922834838717 0.10551662460124608 0.9329932723113651
C 2.219043409408176 -0.7445320443305041 0.8947633605268518
C 1.2420262137365814 -0.9420152748978583 -0.16641990242212684
C 1.7810243647211106 -1.5266093688109084 -1.4165363041939931
C 0.931265310696714 -1.67838044848637 -2.4199278540277307
C 0.3030941724343546 0.17725012065116041 -0.386468705376483
C -0.9738958154358469 -0.011643691157251697 -0.09705851323451878
C -1.4774587055990895 -1.3143414235708408 0.4396032912692717
C -1.9509204640661442 1.0686992376860849 -0.2974960743433124
C -3.278257192260041 0.7357973797499818 0.2894946126493307
C -4.251141189843446 0.2208422652096612 -0.4364771473346882
C -5.412100022860681 0.005252082248075225 0.39938162275154954
C -6.704904906104788 -0.5576423229426162 -0.04589366601764793
C -6.878088157029414 -0.9115280967941188 -1.293700025883733
C -5.150035640415331 0.3863406088158462 1.628876568257657
C -3.7647273562741077 0.8859986792899038 1.6660473783016572
H 8.867578703767528 1.2914755384749723 0.4379528843173906
H 8.275590757655236 -0.26203838636293986 1.412557376793384
H 5.344061545949383 2.125223714819733 1.5439366160229986
H 5.113714377499468 1.7658626583304051 -1.269776704562885
H 5.303448810884099 0.017154267824980626 -0.6863921199479951
H 3.1261722522290314 2.065047281625247 0.010975647959726817
H 2.9216050748967595 0.6281359435319643 -1.0816840973869781
H 2.116084964316788 -1.3942919735564088 1.7851182840717772
H 2.7969881033422173 -1.82519919257163 -1.5466713522239466
H 1.2945541973585095 -2.1022348474624177 -3.3453453420136063
H -0.12304896339633442 -1.4005584869897236 -2.372992315504443
H 0.5998165124946457 1.1442638522428707 -0.7712753341703665
H -1.0935722218247945 -1.5328910213913565 1.4441631393252674
H -1.0455524449255569 -2.1135859884511152 -0.23129279731377939
H -2.565160210111408 -1.3984495028437258 0.3341205342320064
H -1.571506303738415 2.049390621479335 0.061344533241909166
H -4.225248802670498 -0.0208497062969477 -1.5063043943404504
H -7.5175612577546005 -0.6799422293101753 0.6622858577187583
H -6.064676948040569 -0.7854707633837301 -1.9865685981950267
H -7.805823956456097 -1.319582940050672 -1.632143871588137
H -5.842379607331316 0.34267841311606545 2.4883061097063
H -3.703591591511431 1.934195253586797 2.03491336705236
H -3.2206382620754983 0.21864531306460636 2.3864709716181864
