17

C 2.6190798933196806 1.1512266078894442 0.29196311538082104
C 2.051253308778961 0.04440005907251175 -0.13298780454376555
C 1.386623900885016 -1.02523047565902 -0.5278234855586602
C -0.046976568757730354 -1.0076845030549388 -0.34858713595850993
C -0.8022494419848512 -0.14413334796742777 -1.2485168956879737
C -1.8314460347880062 0.6104968795097521 -0.8991776621295524
C -2.3111070614493556 0.6318120245372635 0.4968843652764616
C -1.6601655128210007 -0.13095427824118466 1.3415875303635991
C -0.52255594375446 -0.9958831600889783 1.0704460517993228
H 2.9128324349694874 1.133556790760726 1.307590512339777
H 2.7033665560171825 1.9103028095764867 -0.4433787571746364
H 2.0167182553973366 -1.7777293351117247 -0.9368777588173114
H -0.5075164980238129 -0.10938552516811752 -2.2849860379696416
H -2.3473091828308044 1.225621018186511 -1.6083529255280076
H -3.151792843072744 1.2467236776649857 0.7878525376407699
H -0.8048346015727175 -2.038049326475292 1.341080023991848
H 0.29607933968777733 -0.7250899154309016 1.793284326575508
