31

C 5.915660881761235 0.7028147995335949 0.11756231829194519
C 4.82397496336259 0.10118223286382634 -0.2123743245727071
C 3.691143817118515 -0.4662156881739883 -0.4864416994247531
C 2.5739208947167547 -0.874869005620697 -1.0136731160247097
C 1.35018808807284 -0.06223358845669058 -0.8940747822485642
C 0.26039335358810317 -0.8115451594591513 -0.18807804308372525
C 0.45960082877132297 -2.0365569717839658 0.23764718396205106
C -0.5696456569910378 -2.79891440826722 0.9267589055271683
C -1.8826741754742462 -2.1782960104563163 1.153767502952091
C -2.0602938279599528 -0.8178398003683872 0.6665083699220349
C -3.2974398960151827 -0.1992355398210199 0.8695016980941531
C -3.453453138714349 1.0803378064153806 0.4064069351665445
C -2.454177742064259 1.7549434336513892 -0.23514776955879962
C -2.6109236171241132 3.1488535850773833 -0.7445367860636919
C -1.245599297766817 1.130539425505357 -0.42526501795700933
C -1.0314456883709289 -0.17078067074129755 0.025323609881041122
H 6.715989131624195 0.7163636465431902 -0.6251849100274569
H 6.093375956604157 1.187345828026552 1.061647218463916
H 2.610722267522489 -1.8267915138540656 -1.5304128718050707
H 0.9450318892231417 0.23050007380276988 -1.8705689406943438
H 1.5843339906871736 0.8350775459626961 -0.2890433640296427
H 1.4698921795421527 -2.4581900536432024 0.03781484178683089
H -0.721106933103503 -3.804216046359299 0.3995096008809761
H -0.173819406465799 -3.1430379315367953 1.9380172535272033
H -2.199116028514865 -2.245092065042576 2.2049129455767575
H -4.1132107545079855 -0.700364753415953 1.3730837360840298
H -4.401328125263887 1.5873421926152131 0.5484998307936539
H -2.9253222935352547 3.1754362733509764 -1.7962332658265816
H -3.330957842815817 3.685219093754225 -0.09107018250190671
H -1.6202025053465396 3.6451291433765074 -0.633904817123593
H -0.40351131260419143 1.6130941264546015 -0.9309520599967881
