31

C -1.2041183252294254 5.080841991016049 0.46359553692448796
C -0.23505057609500293 4.241302565087842 0.15131142521439725
C 0.6697667394742106 3.3333283915964445 -0.14259717527809115
C 0.26298463518320203 1.9694300347903901 -0.025128854135465607
C 0.6776943427590932 0.9692106219022132 -0.7429749263362819
C 0.2448324471867028 -0.3834524628675584 -0.5932989166182614
C -0.6383857254052097 -0.576363454305061 0.35002783457905157
C -1.6236212906459733 -0.7416690031393293 1.2225883382956486
C -2.9318765316896505 -0.5927055504902501 0.7043353030600649
C -3.912927293143321 -1.4770869556849466 0.8429754253053864
C -5.261502247518618 -1.2465275239712421 0.26798982956554573
C 0.6191006644810272 -1.54924709506732 -1.3069205724765314
C 1.6026699676799139 -2.2557875067398667 -0.8267265353315558
C 2.669253095058227 -2.824379320367557 -0.32258620194332355
C 3.9279655390764217 -2.3630219799449494 -0.7769883723270467
C 4.494718698253306 -1.4010277745082154 -0.09347380401646205
C 4.989694445158841 -0.43534367770847443 0.646490192421324
H -1.8129563071051238 5.364266204298736 -0.35078384067486396
H -1.2317031406515369 5.348704912606103 1.4866315740323088
H 1.601636547375818 3.7370571230376783 -0.4342078337623927
H 1.411680137082816 1.1839515433488368 -1.516865099541043
H -1.2583500177697824 -0.9621483596781186 2.1813662437010986
H -3.7203543691219405 -2.3866697104528325 1.3891399775349742
H -5.19430369587406 -0.5299056662769523 -0.5645394699040243
H -5.919257439693608 -0.8333181653040712 1.0594349727889742
H -5.706597256674028 -2.2169693871857232 -0.03625691523488948
H 0.21317299322570318 -1.959341870260703 -2.208730113230215
H 2.433448147437801 -3.585994492616894 0.3899699192518693
H 4.515110459107035 -2.6859230895475874 -1.6225577991677287
H 5.598164518538152 -0.7636055668299615 1.4541524098524234
H 4.719110839539149 0.5423952252633204 0.3448234256881485
