33

C 8.129604028238557 1.6808072841006882 0.3251944158352777
C 7.080206329595872 0.9071420928291272 0.2594224078927938
C 5.977608839157725 0.2759071879005679 0.1665107607582158
C 4.886354601632594 -0.39502068920388783 0.0017498726606449248
C 4.083495826551052 -0.2447130251274411 -1.2376564213171848
C 2.8906598339227876 -1.0270236492828673 -1.2540362581227626
C 2.068871345264451 -1.0308352848469708 -0.24437271455481596
C 1.327342801799072 -0.8127646768229924 0.7930816951946271
C 0.3624388648089706 0.2689184070746987 0.7660212036175797
C -1.049043048956211 -0.18863348070908698 0.7052026397214854
C -1.9160659047911535 0.10883033286451939 -0.2843993931755031
C -3.1232933460671504 -0.5403758818014626 0.08803155815398632
C -4.213937049868701 -0.49250126012395073 -0.6107509854385087
C -5.334621381768807 -0.35423304902377684 -1.2500444616004511
C -6.168786035156223 0.7606277375116967 -0.8726164096253654
C -7.3280826012968605 0.9447385312713568 -1.4993187723385437
C -2.9996005339173935 -1.2439235108576174 1.3173800879257844
C -1.7223359303671326 -1.032104799712819 1.7052717950937841
H 8.03319437344787 2.7145551236841574 0.6370121883481443
H 9.077247480358688 1.2272279177199152 0.053088513181647166
H 4.534958749553991 -1.074615877744813 0.753665937737641
H 4.003115178664705 0.8115175446803975 -1.5487821425142796
H 2.61955788445557 -1.6267360524538033 -2.067731057993997
H 1.4173930616616885 -1.4010865340733862 1.645234496547395
H 0.5365562837993938 1.0095111581320306 -0.04244690223393722
H 0.4550064921075611 0.8775617796908425 1.7136754502870102
H -1.7190177358774443 0.710730471662531 -1.1614767447110712
H -5.497472138383066 -1.0882568648859223 -1.9788185331066304
H -5.905377850342622 1.4609853525132943 -0.10439812919452043
H -7.646391550042047 0.2621324663348536 -2.2896068537503984
H -7.936274103095187 1.782108071857567 -1.2034515667222256
H -3.668927960314922 -1.836641014552235 1.9069947486774699
H -1.2543848047733317 -1.4138358086047076 2.603451567481968
