27

C -5.215303477540955 1.3772105212969228 0.009746745810448761
C -3.9235060353806683 1.1991306297135484 0.21153443337808284
C -2.6463089146261267 0.9276992536442155 0.3712487821876805
C -2.196542901239615 -0.37895917384995037 -0.082122486429523
C -2.0309403187425255 -1.3487042646044203 0.9688669261957121
C -0.7804187498384486 -1.7667524117616684 0.9862595339278117
C -0.052704000046489924 -1.0781902741334701 -0.059592960795788893
C -0.8419564343460656 -0.23999466040610695 -0.7039344962718356
C -0.35863188267987595 0.7945216358334696 -1.6529675321257633
C 0.9700452737651485 0.8655511301084114 -1.7919678434374304
C 1.796344378300713 -0.02710485295816283 -0.9961032694558868
C 2.5820634392346578 -0.7837994476710205 -0.2814717621151737
C 3.8415243159387744 -0.9976911053642787 0.4064942806318899
C 4.212146921885201 -0.0631523832208362 1.2354357853466937
C 4.5116019297126275 0.9252301566465329 2.049269355237511
C 1.280586708179386 -1.3435290503864976 -0.6247999811254497
H -5.452885040273966 1.8020153020553948 -0.928017443016794
H -5.8264475628827626 1.068881892455702 0.8141354753791806
H -2.097821951598443 1.7129177068550299 0.8193004000463587
H -2.768345479449644 -1.7285694870535304 1.6770078534495834
H -0.35706167739307887 -2.512124993239378 1.6764328183053658
H -1.048728786695108 1.4254352089648608 -2.175615963894943
H 1.3808185698509758 1.5852207020842548 -2.492043923950884
H 4.499142808745993 -1.8145889281591296 0.3227605216829138
H 4.145275333425049 0.8067499305612138 3.034308859559099
H 5.075527610077561 1.701501425629273 1.6085552130380243
H 1.3025259235546671 -2.108904462447547 -1.4769364074446678
