26

C -3.661186793140652 1.8770050122498096 -0.7854079450260207
C -2.8918623519318767 0.8291944539690204 -0.7445996785857368
C -2.404808181918107 -0.3342468547725932 -0.445359658768918
C -1.1514523101471696 -0.27242248568752825 0.26201250467546394
C -1.2180470082096624 -0.1247366150229968 1.7036843305851643
C -2.4001667939944142 -0.05166653507363761 2.324722272571488
C 0.01709673016795229 -0.3408670798838761 -0.31462424258955135
C 0.04862730249901004 -0.4918003088214218 -1.7919038010392243
C 1.2644124662430576 -0.2773515962150694 0.40840794699275423
C 2.443528981567688 -0.34828959321217623 -0.22535527530773314
C 3.7191183251332283 -0.28937636535781724 0.45409259779897937
C 4.850740576592655 -0.3625952715562269 -0.20590773188538378
H -4.330362884836022 2.2007807318678743 -0.029918868544451128
H -3.569088499949042 2.4121570932570187 -1.668919063388006
H -2.8462111334938993 -1.2674522294739927 -0.6741422083806955
H -0.36223120270214976 -0.06549236609006089 2.3525831354820403
H -3.335137816694255 -0.09918705369265007 1.783984302885012
H -2.454221383397278 0.05697221028501918 3.384820373586475
H -0.9838874939529911 -0.684367552072941 -2.135877263868775
H 0.3310296696697379 0.512725545201785 -2.220290340907936
H 0.7598838387667971 -1.278242016165557 -2.1198681722460924
H 1.3527069266375584 -0.17175974675890246 1.4770032596252287
H 2.429881189568786 -0.4548568770701258 -1.3044293842159704
H 3.739932997486296 -0.18343440183811027 1.5216203849962733
H 4.847494309517885 -0.47089263948648696 -1.2959202012295497
H 5.804210540516443 -0.31979745857833564 0.2895927267851104
