24

C -4.436194748397059 0.8504422865596872 1.5358390578406664
C -3.958926400943695 0.03978103606008203 0.6111731592129943
C -3.456486836923397 -0.8287424393474656 -0.24032751059929358
C -2.87629857855984 -2.0055924936119345 0.31953897353667426
C -1.6191590941033511 -2.0617507446280405 0.6709621078549288
C -0.7628570802483504 -0.8686438994605301 0.484870231218993
C -0.48150612739235193 -0.7099577814754028 -0.9568753567784329
C 0.6838365358486738 -0.2495866737134203 -1.346717073382532
C 1.6813784069264133 0.09756524883330948 -0.35029055096161393
C 2.8471481668062575 0.5585259024542993 -0.7522449316709532
C 3.842277292983872 0.9046045497218465 0.24832462598065774
C 5.02821772599477 1.3725097691394446 -0.1316876335990415
H -5.446367007004487 0.6727265668994147 1.790080879056311
H -3.7395972589861013 1.5616542092300203 1.8909375790951786
H -3.549569919223529 -0.5359895088637963 -1.2519763362665224
H -1.1843030347933312 -2.943314351001905 1.0903943646653307
H -1.3119355689637116 0.033040423091801545 0.8271792276962142
H -1.2281955172087742 -0.9705342616395558 -1.6826288237924594
H 0.8970189481756377 -0.13042402900175257 -2.408228171849784
H 1.444768220091774 -0.030373907402338342 0.7055437816645397
H 3.0239166201467875 0.6635343461435264 -1.8084801782742665
H 3.602250053757163 0.7758240078467292 1.2913716886449715
H 5.738269501346818 1.6173605996107554 0.6415063566197783
H 5.262315702049473 1.4991334784007004 -1.1782654660911913
