47

C -3.4049746985313933 2.6881622262894647 2.303381746834679
C -3.0810045960761077 1.4177283282585933 2.1578472928501187
C -2.8098679358148133 0.15227645615720334 1.9676995568932478
C -3.698599375555302 -0.5430973956444737 1.0528031012037078
C -3.3521313225053837 -0.8509693376645635 -0.1835191962738343
C -4.349293552540088 -1.5595811591632194 -1.0129425991928205
C -2.026938659937477 -0.4830224568560533 -0.6585567560969758
C -1.8839835985443798 0.8532426222672036 -1.2992905199655354
C -2.7936547168144052 0.892602942444718 -2.4978555327678054
C -0.9764969356820824 -1.2630621109461055 -0.5477570730983131
C -0.8752177851733723 -2.630613108098021 0.05060972361912797
C 0.34201539134365483 -3.2679833249420653 -0.6078869229671805
C 0.8161257229932458 -2.2440194580946002 -1.6429869923625144
C 0.4044400785231758 -0.9584710454899525 -1.007018167969727
C 1.2754723642837393 -0.46906134186770365 0.057283199378704484
C 2.589934839409123 -0.5280075501548104 -0.08275564319541943
C 3.527796557803865 -0.04170246248868265 0.974196475985683
C 3.071102492180194 1.2999233737312947 1.3740765406399897
C 4.005925968482305 2.1783196227997434 1.0800684255279243
C 5.123048973137853 1.48073711776503 0.47588925851893915
C 6.386613504020693 2.147932638232883 0.0032395086834546513
C 4.86851069267887 0.18841480460072463 0.4035684805775231
H -2.938329599929244 3.336568124241034 1.6135924175615028
H -4.085813174792886 2.8719069641822723 3.089729823845721
H -1.9814022490871004 -0.22041967611466406 2.496374789043415
H -4.678736242310807 -0.8174119317735014 1.399030479243245
H -4.004318689765174 -1.606004552835496 -2.065441787804483
H -4.6115522795334005 -2.556597314115337 -0.6082775579944287
H -5.305557749792139 -0.9858617956455321 -1.0381917549254964
H -0.8509295403976612 1.024500270875158 -1.6678935183218437
H -2.088442745868479 1.67940165753095 -0.5823503417772243
H -3.8685043498240796 0.7849240489507269 -2.2107234794432737
H -2.649658379565606 1.786558087704566 -3.129308042789073
H -2.548120988862473 0.011606560148747978 -3.1257280595504904
H -0.6519536162718418 -2.582418005622215 1.1388057084720782
H -1.7343288124527183 -3.2628427540732248 -0.20118562799230916
H 1.1903479921222473 -3.369563861331548 0.10725961845511371
H 0.16998587656912925 -2.404232588424755 -2.532716271480651
H 1.8746376412420274 -2.3456095699855304 -1.8784335532713108
H 0.8514933325727096 -0.059180954120694226 0.9579976450421015
H 3.039159977788854 -0.9369483382500797 -0.9811606053055133
H 2.1162605327994126 1.5333400471517302 1.837945985305098
H 3.974630958695901 3.2707015572141933 1.2522583129093656
H 6.969306696784429 2.523768932888253 0.8612197998522909
H 7.018474268302655 1.4247307533389963 -0.5412686106934844
H 6.071081408099964 2.957944663343831 -0.6928945897727795
H 5.5634463257943105 -0.5186097064156647 -0.011774573120409946
