35

C -3.7053971054644457 -3.34824366500762 0.655460209126268
C -3.401297021200852 -2.177042011692188 1.1672634425246038
C -3.081616499763188 -0.9755187909740995 1.5721354847493623
C -2.7378219431088255 0.00335899673740515 0.5626881637563687
C -3.7682355655498863 0.9400957539245627 0.17217066298963687
C -3.808304808509859 2.161885806130408 0.6804362693161403
C -1.3791446265295657 0.5637737689113381 0.687416882486611
C -0.6964106078954724 1.1159049009226962 -0.29484049853096256
C -1.245843778657175 1.236458371346642 -1.6862193751784167
C 0.6726772168790001 1.6574559104899356 -0.07998258335860228
C 1.7046828229256654 0.6230659129666065 -0.3590838952176958
C 2.9340324116783707 0.6816285016219418 0.06981540494978171
C 3.6984938534002763 -0.49781143940144407 -0.3806695089164008
C 5.096833384319818 -0.7958140502002791 -0.10789694020905428
C 5.803337830115479 0.04474046809035145 0.6145606324297549
C 2.8956990229171415 -1.2489968291674152 -1.0812915566018715
C 1.5684626688560792 -0.6118513238128539 -1.13122520848717
H -4.7304441285000305 -3.4753918583645715 0.42624443528024686
H -2.884649879645894 -4.005206996202245 0.5409721238658345
H -3.1157624945518663 -0.8635735082660154 2.6371339217722713
H -4.528355525030372 0.6649791311269634 -0.5425576949316151
H -4.562403970619676 2.9004572259612833 0.4180537288362218
H -3.052912356622752 2.482184316004607 1.4114148279846535
H -0.9164951100039035 0.5120684563764255 1.6667091921775263
H -1.7675783417614508 2.210447256889654 -1.8211780100638628
H -0.4125440549188806 1.2200476120271462 -2.4195499919078416
H -1.9132009470230567 0.39032017469257546 -1.9359594373783482
H 0.8147440802651502 1.9521229863092802 0.9922614407854013
H 3.403413684404385 1.4541072435347597 0.6760383788484252
H 5.5517626627124175 -1.6969550590902702 -0.49354123575698006
H 5.350069389953765 0.9408363695170724 0.9977534724325444
H 6.849380796910066 -0.1509794182355635 0.8346477589503588
H 3.1971297369674865 -2.195494327130595 -1.5429009060990304
H 1.3490147796677003 -0.3946379551891525 -2.198062716951164
H 0.8186844233843501 -1.3184219308471903 -0.7082168736726983
