18

C -4.234140360074339 0.13808396504940543 0.17805117338380713
C -3.0424570156701662 0.20330401650364432 -0.3396022733671998
C -1.9751650488254826 -0.09275608438348093 -1.0227116598789503
C -0.8391119353372718 -0.5101805084652895 -0.2442688288446461
C 0.3195442358254633 0.45215888818593797 -0.5458084877987159
C 1.513248459177795 0.06461225595223778 0.23159591662003925
C 2.715206059254342 0.2042000790451962 -0.28650758381722025
C 3.976488591180947 -0.14344741366013983 0.3830372865611273
H -4.857877565213604 -0.710610051243816 0.264682735083558
H -4.554720889939265 1.0661356283779981 0.5318850541203074
H -1.9057804430657543 -0.044946561231181494 -2.080448554468739
H -0.9543325095339644 -0.4781498275917404 0.8562179925335734
H -0.5509220895709042 -1.550610776935402 -0.49164899049625505
H 0.04349948167084804 1.4872857518216538 -0.270428880423107
H 1.4138338284098242 -0.3333070183840717 1.223151724103956
H 4.064150679681748 0.3579607396307276 1.3725541670519246
H 4.05717255349667 -1.2447452693347734 0.49948384659330247
H 4.811363968532525 0.20297680295792106 -0.25923463695667026
