40

C 6.58539042099408 0.49929235816116385 0.9585636832429982
C 5.709741564900679 1.1455796409529724 0.24532676052617494
C 4.751988754581365 1.7281566843990874 -0.45161694790326373
C 3.40292395498592 1.2291332672359627 -0.24403294268018036
C 3.3776424633130127 -0.10349813281943941 0.3425028675005723
C 2.2176768181444575 -0.5171583743035197 0.7838881484966264
C 0.998675095062452 -0.8728238335134728 1.120275966328166
C 0.2263241183086094 -1.502298044170547 0.08277677182679626
C -0.9343602396058528 -1.0567858300269655 -0.30812629232692307
C -1.6675959899553896 -1.7597725996984923 -1.3815620496005656
C -2.5802462784876306 -0.8313797567204199 -2.112185855173446
C -2.32913893912841 -2.989949593923276 -0.8918002804461947
C -3.622566181090495 -3.0080704526989277 -0.5781108882543684
C -1.4852730139704124 0.14421926996876375 0.337112043696849
C -2.4506591177847463 -0.09161751660016328 1.1594865738324123
C -3.408562517847806 -0.6301929590891917 1.9094493279894178
C -1.0351127961628677 1.469711152930279 0.10730266635606087
C -1.5756064023895264 2.6446334155572724 0.7637372080205167
C -2.5043115655238357 2.8008579667610207 1.659333421545128
H 6.766212798726685 0.9151244472554965 1.9279356879606964
H 7.015022185971513 -0.35976039688747985 0.5005009114901857
H 5.102288941333674 2.498131268767094 -1.08264207345031
H 2.897492227450748 1.1817305264646973 -1.2502677547649919
H 2.762752989311387 1.9303534020075646 0.35106486273280585
H 4.151524771881435 -0.8089713022296942 0.47433858803475903
H 0.7404955234182119 -0.6478652148051796 2.11573889221867
H 0.6361498295395049 -2.386911900295527 -0.3898252575790276
H -3.2436156089841064 -0.23973693807163057 -1.445925218683947
H -3.2466154868600596 -1.4385162017751179 -2.7612136234861264
H -1.973618482183847 -0.1729610324283304 -2.773732466185032
H -1.7193783042386206 -3.8805018313235986 -0.7971650509937999
H -4.2093100473509155 -2.108983636635385 -0.6805438349357832
H -4.070376498263204 -3.9247367550442687 -0.22394930143281894
H -4.319318682561385 -0.7057626686627779 1.3999561514117425
H -3.071687548149052 -0.8723747359713268 2.8707300686372923
H -1.1207668017993633 1.6890762983369485 -1.0239040138409252
H 0.1060478546434584 1.5449994863749836 0.22638085827080867
H -1.0606563244563458 3.605889427727928 0.3961742422132827
H -3.0888623690814723 2.0487301942580047 2.117209122981518
H -2.730711116693792 3.8350109005350923 2.0016334366847226
