17

C 3.1856950837704963 0.4669721940602474 -0.05625740905782737
C 2.1572100506761096 -0.15751948057695 0.45669102580886434
C 1.0881115774903702 -0.7941254334281415 0.8771221235699266
C 0.16635111379657005 -1.276258598237374 -0.13920568605639363
C -0.9765719750810651 -0.4144197574842639 -0.3770327973174028
C -1.8598348378007499 -0.38899261665703777 -1.5304150450712113
C -1.251722507885718 0.4469754155708888 0.555474838672053
C -1.5563236399853553 1.2773057380352837 1.5421619113798681
H 3.0546501933117662 1.5071492707440828 -0.18950655316061288
H 4.015694349446418 -0.15457052584530298 -0.2716117575490088
H 1.0285684068657184 -0.8795824610318335 1.9333490692117243
H 0.699232165136709 -1.5698455835729377 -1.0639079800919893
H -2.104579600278457 0.662934832635639 -1.8226770426156516
H -1.4988647050209112 -0.9900207633702282 -2.3930939140278324
H -2.851236382164727 -0.8328854699978152 -1.2274235335976742
H -2.218803260770234 0.8896262056867659 2.263637040888391
H -1.0775760315073364 2.207257033469094 1.442695709015176
