28

C 5.117846461655225 -0.8770943224188135 -0.5654328285962813
C 3.8185368001562825 -0.8053844394650267 -0.5704945927666597
C 2.530893957374743 -0.7437883478883611 -0.7435149491429671
C 1.267127668382256 -0.7860499542943957 -0.4677848271766252
C 0.5677820238421459 -2.0863628647857047 -0.5398457984106323
C -0.6111705202599312 -2.4143516136190106 -0.08104847530250398
C -1.6171333348384012 -1.5995429501070042 0.6512628431826553
C -1.7816009488806555 -0.29790202374750857 -0.00022461749183090953
C -3.0543925707752426 0.016362712894211585 -0.5800842849717538
C -3.756069065534223 -0.9579002073179141 -1.143678220326539
C -0.7490519635178695 0.6963393270041268 0.11178710306739847
C -1.20087959470478 1.9569992392543802 0.45986932511897793
C -0.2704569709616438 2.955167362555001 0.5846866411317541
C 1.0787788488426784 2.7473513347499776 0.37817263423898423
C 1.529168046062545 1.4946054288906756 0.03225130280191544
C 0.6113721907109709 0.4832268983155201 -0.09713486088490822
H 5.609363594661741 -1.4802693553790545 0.1822816372082732
H 5.6931245232249275 -0.3374477180866687 -1.302964835495699
H -0.865599884574064 -3.452054317744739 -0.2830940970957861
H -2.594413229657513 -2.1301273949233073 0.657773716127293
H -1.2668243495856388 -1.562181959836275 1.7051868500797385
H -3.480370833681943 1.009253984194258 -0.5859913800289799
H -3.4285899919288587 -1.990149663444844 -1.1967419620377637
H -4.7131508506810915 -0.7224560851493933 -1.5798606074470345
H -2.2521324695704577 2.0800390318532167 0.6133712737563864
H -0.5904539152145332 3.9521401167706487 0.8555179183497619
H 1.8198943037563329 3.5335104473524446 0.4754675769545987
H 2.588402075697169 1.3180673343737157 -0.13298199626542112
