47

C 7.312903248743045 -3.1026320823794875 0.17245909706884185
C 7.361267482776944 -1.804153266932992 0.0515134385373242
C 7.650383933398138 -0.5391563269532873 -0.053164348234062936
C 7.928422266574351 0.6756025233045588 -0.4172853802079683
C 6.915030137541304 1.651397502467369 -0.8790358549868431
C 5.729108477674388 1.0495517529787346 -1.4684763463459927
C 4.712175679040353 0.8406568941394409 -0.6493735477104033
C 3.7312458955334087 0.7989100867680986 0.21621300043602637
C 2.883369133391096 1.9774697777375423 0.31296430046960033
C 1.4551343697393022 1.5372232029795099 0.47307805685132676
C 0.9998807212370185 0.2989120254864921 0.5228212631786581
C -0.46456922571149717 0.3039223716301168 0.687528128514295
C -1.2062449377757383 -0.7750022433129485 0.7696703967321543
C -2.645790799608806 -0.7421688106206468 0.9316022783935262
C -3.344802013520361 0.3733856849385707 1.011514578323936
C -4.800713978719024 0.39418630034060015 1.1752687429738993
C -5.523695430557938 0.07285005517939373 -0.10853515450415206
C -5.108830905164678 -1.2742528088083573 -0.5949677979980644
C -5.768266520740076 -2.33457600817372 -0.15704448552192793
C -5.410592984248593 -3.7190324815113915 -0.5997729308122314
C -5.362252705716276 1.1520332235629733 -1.0839772026256334
C -4.6175798852257195 2.206576169075898 -0.8384370107788562
C -0.8219702296613732 1.7057558108794062 0.7293727206664331
C 0.31551939956742464 2.4136175672106743 0.6022763288948694
H 6.806641557822874 -3.670901362480132 -0.594378158520122
H 7.7796371692478585 -3.5552924547231486 1.0318469449301746
H 8.957071845295703 0.993825018291947 -0.3818610259595879
H 6.737660648838033 2.427811776954929 -0.139719911858406
H 5.526898636198629 0.7425212205157955 -2.4564035079395508
H 3.6781820669166874 -0.10664136736217855 0.7496814575419185
H 3.181258191998255 2.5670670527470065 1.2263215600113824
H 2.9427980207114537 2.616564423047471 -0.5631632144347982
H 1.6114460787822265 -0.5976725657385733 0.4529822869345939
H -0.7210611182582592 -1.7717480443099733 0.7139334834725999
H -3.1787841553422123 -1.710263606166378 0.9904228907935196
H -5.1255490722537385 -0.3266152931980889 1.9720066991846932
H -5.076717778398104 1.4020921660132295 1.5625728055036003
H -6.633161498856398 0.029184915588520398 0.13412204445790288
H -6.578628468290297 -2.2076757258947497 0.5308420071637786
H -4.293173094674678 -3.8090632672605844 -0.7362029712972364
H -5.893061671670271 -3.863054086079871 -1.5899153693297232
H -5.738764018739437 -4.437978620237418 0.15899159585045514
H -5.886895049930913 1.0836827681495842 -2.072536216168064
H -4.069674538226241 2.394893139796759 0.055524167709277934
H -4.540135672480094 2.9796164029747243 -1.6182144226719433
H -1.7911592127225675 2.1674193342573926 0.8389173446676887
H 0.386040005466727 3.4911512551295765 0.5956169322062154
