38

C -4.8480886121463715 1.7507741218169894 2.025071852915776
C -4.796315097554242 0.5864154644654421 1.3980758338403014
C -4.6567888553507375 -0.539415856736091 0.7631889867351385
C -3.3602635949939756 -0.7607156205397511 0.13161365712134318
C -2.2632051118826504 -1.1213535681858053 0.7735661812330269
C -1.140457094297174 -1.256477716190233 -0.1568090056422401
C -0.06830019296343248 -0.27436386855327377 0.2624242248923823
C 1.1133654710956706 -0.3364913190651266 -0.6225631326698374
C 2.350664292534236 -0.09426571948844352 -0.21305882821650046
C 2.6176193931251435 0.26401909328847006 1.2059751926033577
C 3.4968275260469674 -0.17449757005239208 -1.1582589789802045
C 4.681546097307303 0.5676364972184226 -0.6483649576577879
C 5.531334391396214 0.01963995696072948 0.23230494323391424
C 6.700225140835434 0.8042437145270703 0.7104297437288286
C -1.7261579550545285 -0.9213166583686575 -1.4671872656255094
C -3.0382751382019353 -0.6299488016805104 -1.2853407272687616
C -3.913570315564828 -0.255768526074175 -2.3840914737741903
C -5.176042085763765 0.031848313337844936 -2.2584346416182894
H -5.187979853518159 2.5502870694703805 1.422198661095527
H -4.542764526902927 1.7162505410078626 3.035671671295632
H -5.494951344030361 -1.1726419879016527 0.7726860554747358
H -2.197924178564752 -1.2944958675066445 1.8409216616409174
H -0.7502763710642354 -2.291557762199854 -0.23260623780901196
H 0.2799747136797084 -0.6224638743914743 1.2761604461871827
H -0.5015946103977017 0.7230707976232846 0.37409891415377383
H 2.882449947721378 -0.6062657353072102 1.8279131481779223
H 1.7286411454024764 0.7585175436008368 1.6708539425480233
H 3.501617365866919 0.9624191521920095 1.2685237827224352
H 3.746695012985266 -1.2052768467255905 -1.443855899224344
H 4.854898028226504 1.5763486846681392 -1.0027823491651071
H 5.380677967993092 -0.98775897502828 0.6026484897155684
H 6.457268045667927 1.8871333826771872 0.6245746430539284
H 7.619613486820084 0.5638498611258295 0.15080856537634915
H 6.876185374831238 0.5848999420462601 1.7821356995225521
H -1.1825371821084527 -0.912952775036548 -2.418305712439111
H -3.4998038240649763 -0.20933298057287777 -3.3799367823710007
H -5.810000968437252 0.3101919665891667 -3.103991283326955
H -5.664306488672862 0.009815926989104357 -1.3055479591237116
