18

C 2.707537371022062 1.5492586628566218 0.8138688904685458
C 2.095615445608132 0.8410441844786353 -0.09334600145546039
C 1.464887838510301 0.038316722416998766 -0.9275440844529345
C 1.2577720742992018 -1.3367131240998964 -0.4904890551418306
C -0.05829298781863795 -1.8968005938004846 -0.9169599106302743
C -1.1821487877001235 -1.277324362684905 -0.6396310284937694
C -1.2497762301337454 0.01013792264131022 0.10763512543566223
C -2.6755735268370966 0.3088282096198415 0.45623386670059096
H 2.081439076703114 2.0420240852401657 1.5155652333337617
H 3.773316897737605 1.5427118801960795 0.7356736497299716
H 1.1845017094525347 0.5089711780267595 -1.827712419949415
H 1.3256890727357666 -1.4471608756535426 0.5872449005901986
H -0.08662115420912558 -2.815101077037024 -1.455724846057693
H -0.8682635694786965 0.7914524902313713 -0.5862594485638173
H -0.6456427459270282 -0.019912355945931222 1.0472474996539318
H -2.9301647828484305 0.03566177216290263 1.5027073675518685
H -2.833652831349424 1.4031015540701304 0.3634559399953285
H -3.3606228697667615 -0.2784962727190973 -0.19196567871454728
