20

C 5.336925130844543 0.32092226708470944 -0.1921923044802805
C 4.154908880520778 0.5510579999252101 -0.7391175441894873
C 2.927177031614781 0.36888564756960784 -1.1411245251429767
C 2.15033857153099 -0.7973565662721596 -0.9260310607646552
C 1.2156539758211853 -0.7529706528099398 -0.02821880892678616
C 0.21806656752427783 -0.558797297413318 0.8130120627253631
C -1.0034584973372487 -0.06502696460541504 0.25815583050652735
C -1.7274360130781496 0.8057044091529094 0.9329354290382615
C -2.9554206645341434 1.2756381962500083 0.32921041718742555
C -3.8717658458631123 0.3712457234616499 0.10039158722528196
C -4.721440334097926 -0.6058169926132102 -0.10896084163949388
H 6.084807636509975 -0.12905798985926287 -0.8241218575900238
H 5.450524065652917 0.5997190295280973 0.8330920435079713
H 2.2432210680293814 -1.7239148364158319 -1.4249150986600543
H 0.47347497633043634 -0.8028426413011477 1.8096257171318408
H -1.337110162427835 -0.39016287402989064 -0.692024776266027
H -1.3939740372872826 1.1550140281548664 1.924910929372471
H -3.225396497857109 2.253046429312202 0.0420903669187708
H -5.385527447186097 -0.7889559690272967 0.6949400054404662
H -4.633568404710607 -1.0863309460916784 -1.0542341079238415
