16

C 2.6710086857209134 -1.2995385296200683 0.2567993172822893
C 2.000330416264703 -0.16922518560067978 0.30968740334707484
C 1.2416948350940966 0.8835874432385763 0.3535525942365518
C -0.1681716330534107 0.7195211867351331 0.43582535524972776
C -0.9567827847601186 1.7894572752286664 0.48139039769572056
C -0.780200512982169 -0.6218293494581482 0.4721060435767188
C -1.7950110685478151 -0.8263471439883259 -0.6303381832356032
H 2.9533569712160697 -1.6822805726380186 1.211392415157597
H 2.8392258562440773 -1.677843571026477 -0.7135855309734933
H 1.7900536527493816 1.8074982663134076 0.3212801930649532
H -0.5702489885760549 2.7994615615333327 0.45845389628108324
H -2.0406801740189344 1.7084680784161823 0.5446333442388869
H -1.1814493384286155 -0.8255889095032017 1.4770860772137793
H -2.650210720785843 -0.15424791017994247 -0.4859991614641262
H -2.0605779152808705 -1.9031601490071486 -0.6290261626773966
H -1.2923372808550468 -0.5479324904436641 -1.5794445948109312
