39

C -0.47311329297083166 -1.0268370460401866 -3.228556845134485
C -0.9830909413234541 -0.48183777905856595 -2.145563935054727
C -1.5574994135992613 0.03603759781585595 -1.1114362022887951
C -2.950929485855288 0.3639071059324918 -1.169585390426018
C -3.572291976212061 0.22170419617671275 -2.492200213368983
C -4.490335295385849 -0.6691290333249122 -2.717858384054339
C -0.6283217561482289 0.21500198000679127 0.026280289989015552
C -0.32384519393997313 -0.8748526536334688 0.6843387019205943
C 0.5181847457440739 -1.0771910993976401 1.8058874474555255
C 0.1413540629973557 -1.2899088289206546 3.2076583641122847
C 1.790333266371986 -1.1028500603006375 1.5668357729014644
C 3.0783240343847895 -1.2559595932681544 1.3074139793575879
C 3.5236957017904387 -2.5677725662534985 1.0142466444103093
C 4.794429184159009 -2.7921248648243955 0.746291632931501
C -0.15837525101184113 1.5391375269653977 0.29701984396770154
C 0.7637269044396539 1.8642605012015954 1.3941787760303368
C -0.5513706073704282 2.5670433241829316 -0.459584060442336
C -0.10892914933215116 3.9520247505268506 -0.2392112161212234
H -0.0825823677191443 -0.32615583225780403 -3.908209817474257
H -0.5301927662043275 -2.0819905817125255 -3.2571095006724953
H -3.579220201960679 0.10872319696494427 -0.31907934402636956
H -3.212723184036553 0.9135418965253043 -3.274836644864706
H -4.940988141050452 -0.7665013045004985 -3.691425435277445
H -4.818692437032634 -1.3289123369968256 -1.9330987814117808
H -0.7972790614905988 -1.8318077842827099 0.31964356713445874
H -0.9516879151448076 -1.1229768093746078 3.3736545397793547
H 0.7059598567795065 -0.6407030172736162 3.893186253714888
H 0.3456966735992533 -2.3750478353413365 3.438712713811608
H 3.5975527236698652 -0.34712606700539245 1.3598231497596633
H 2.877410655535097 -3.4379685341527817 0.9918480748084941
H 5.490572578086861 -1.9728558058757608 0.7517476517466634
H 5.182496344614126 -3.7703605261381252 0.5176372358267392
H 1.8369436605027691 1.701012943152135 1.0814188463750405
H 0.7475878543612439 2.9644910493086054 1.6363415876112541
H 0.5336245528885489 1.3712550256258544 2.346266138247103
H -1.2245917695396482 2.3533810523981624 -1.2649702784848516
H -0.4913142249372568 4.3211252924621455 0.7471555862523184
H -0.5147880569961666 4.608004532790196 -1.026583736102207
H 1.0142696893357477 4.040217987899772 -0.26827701293529266
