18

C -4.742698434640124 0.3293186739564566 0.4303431681023774
C -3.466325214397196 0.0652176254423379 0.29608610472119645
C -2.1746433886248657 -0.12963861568184087 0.13365115270564007
C -1.463078557593742 0.917599590799638 -0.5237284803996812
C -0.42225341044436926 0.614421609505649 -1.2644809683853342
C 0.8220958287027347 0.3349965830732021 -1.628360249981935
C 1.9028254980274422 0.28741695535770423 -0.6515173015519592
C 2.728505094337645 -0.7313552094047361 -0.556131761004541
C 3.8203222005264665 -0.7812576888755053 0.42949474725249415
H -5.349408892095255 -0.0032935059830323794 -0.3851798345489167
H -5.009107939462501 0.8334472173742734 1.31807078299002
H -1.8281940144464452 -1.0519583440549036 0.5180263484299775
H -1.7381506300190492 1.949524445124822 -0.4381768594205109
H 2.0450303654787536 1.1330855446604888 0.041506056631662035
H 2.5893875084312152 -1.5552349389446667 -1.231761182778226
H 4.228996463894142 0.26966950739070766 0.5092619883968985
H 4.6473745470141825 -1.4396060179029917 0.14061688313849444
H 3.4093229753112992 -1.0423534318377654 1.4304166896684594
