32

C 2.642591757234799 3.486515071670583 -0.41863148787356863
C 1.991680488519645 2.3836648257771724 -0.643164529891227
C 1.461531138837899 1.2952167831652086 -1.1337166720152085
C 0.44058834768265287 0.4731719897924059 -1.293894086229155
C -0.30460276584804113 0.5566500773594851 -2.5684557279855147
C -1.5217456762181076 0.037943101053851534 -2.8193151935348775
C -2.424146611251746 -0.7224273138592414 -1.956091160062639
C -2.395792876862828 -0.34832891258649734 -0.4976144335105497
C -3.5290306009958536 -0.9519775817854929 0.2087128240719201
C -3.9362085098810913 -0.3321946925166002 1.2908709850274183
C -4.276946552760343 0.35133392895270044 2.35913763540233
C -1.1487956548843363 -0.7962624668242823 0.17044212709945344
C 0.11261878225083394 -0.4174648495225331 -0.20188435386286172
C 1.1865175501976406 -0.9188552506043043 0.5981161422425614
C 2.4596654712158563 -0.7570492541229127 0.4775050678971946
C 3.4085737727133285 -1.3797009683841628 1.4476905737090315
C 4.699380728322713 -1.221872677988992 1.3343490099695672
H 3.7088450320339215 3.4543788566953544 -0.25161850941522224
H 2.1757826650760363 4.460206611580637 -0.38696835081166564
H 0.21181934221685117 1.090933625456145 -3.3238774201053003
H -2.315925551594501 -1.8219987923605634 -2.042434945977345
H -3.4743551912972293 -0.5080514770607345 -2.3098146164951934
H -2.4934224494905672 0.7549997519777749 -0.4501649713141635
H -4.074935563776759 -1.8239788056103812 -0.026467838079455106
H -4.998823927152943 1.1032164828768478 2.186368199902244
H -3.781273052704003 0.05551350146644005 3.244581930841797
H -1.164455213622929 -1.4528228557111802 0.9963333674406651
H 0.9133113203473016 -1.5553480206990387 1.4988615661887386
H 2.902660908110577 -0.21181741351176736 -0.3236303045377365
H 3.006714218400296 -1.9677393848291245 2.2515584185463786
H 5.144836828568889 -0.6388213000609824 0.5413593725726364
H 5.373341846612502 -1.6770325897857523 2.041857380789501
