23

C 3.572362293340199 1.0570267111784346 -1.7546263291254507
C 3.096284573896832 0.8672094093575052 -0.5342823318183201
C 2.5713573875858753 0.6428618776377949 0.6401930319827202
C 1.3514734877848689 -0.13094894281224082 0.6425752214223353
C 1.2494174105057503 -1.4383602559925255 1.320601875194656
C 0.302416269157814 0.35499834300806005 0.01655497713771293
C -1.0065202070806845 -0.29941197865981367 -0.07679840499151919
C -1.9848202840565257 -0.2911468981905426 1.029992665889268
C -2.186477583372911 0.6140082594595679 -0.1070266030149876
C -3.251504824295372 0.33045661002322374 -1.1499062584116955
H 4.24256676759941 0.3076906598763752 -2.0790682442449757
H 3.2133982481316083 1.929790718516359 -2.228851954838339
H 3.0991952419419215 1.0531651980971866 1.454219753193112
H 1.5041353208312016 -1.2839069927039046 2.4099780318958377
H 0.2093923247353076 -1.8177445864569923 1.2845888678254833
H 1.9112723519379988 -2.206923714039887 0.867144694249116
H -1.0293512178305222 -1.1535304896746421 -0.7976583682015328
H -2.6301324105490065 -1.205046272596692 1.1482409737797912
H -1.7231594064094484 0.12958379159399105 2.0364477021158347
H -2.015537218291212 1.7087639671932997 0.0875189911411351
H -4.246834887830081 0.3367369625922445 -0.6246925828649962
H -3.1795888302614994 1.1277565864749162 -1.914560861483197
H -3.069344807471589 -0.6330289638818146 -1.6705848468319686
