31

C 5.649652585575192 0.7929066453124 1.186169915803755
C 4.553168290067595 1.491821157383865 1.2292247732418022
C 3.3128485342503504 1.931052517003698 1.0670012835049112
C 2.367865210576125 1.1272684468435823 0.26998936602019774
C 1.5462557984811292 0.27608155465220907 0.8067908336661699
C 0.5831018720245306 -0.5539044673282962 0.08148895130348091
C -0.8151293882531979 -0.3459909709255916 0.5355284130714707
C -1.4162040647169272 -0.2656425995382792 1.7201220227547351
C -2.905801619638076 -0.0407456803248087 1.8007196769288971
C -3.2165275333117074 1.401435872586647 1.4564731478066821
C -3.4964212044890397 -0.9188222464932846 0.7211724000190002
C -2.8903317419180663 -0.9918122753714005 -0.46894886313756107
C -1.6719895857919655 -0.2042321056417037 -0.6575520950397418
C -0.8801735024230282 -0.46728534385431114 -1.8658953309455104
C -0.02471396900086038 -1.618029949138165 -2.1123390835405353
C 0.547384495471626 -0.4045411095855738 -1.3922244204879417
H 6.367078089691894 1.0114574422811127 0.4244783208441724
H 5.85865595928012 0.006090616777541502 1.8822390485737326
H 2.4124875930123557 1.3006186695108763 -0.7876881819073204
H 1.5696411582169203 0.1647650843689795 1.8853802337067866
H 0.9096727302741746 -1.6206775048850148 0.2866653519110276
H -0.8235741205044553 -0.3635264507404838 2.62026380986945
H -2.6469897026685505 1.7016448043422427 0.5697688972445143
H -4.306684377814762 1.4451459697988374 1.1706690159302329
H -3.103468268496028 2.072131667481538 2.3237822331876057
H -4.392972021012738 -1.4567328174290186 0.9579032412049321
H -3.356377978020429 -1.6364021760483998 -1.2065906524967585
H -1.1864282398121457 0.15786342520337598 -2.756605480892836
H 0.37222895699942127 -1.7313134503159275 -3.1497233033263528
H -0.0779576989180745 -2.5649055900474313 -1.562540786581481
H 1.1617037428708863 0.3042808641214019 -1.9618534287800722
