14

C 2.4403753041059204 -0.35593281493412343 -1.0656580239905864
C 1.297141320061869 -0.196335644422658 -0.491225547666251
C 0.12112964399115354 0.06837994782482103 -0.008087244922006378
C -0.22814689870296848 1.3840365739435647 0.4305549288252525
C -0.7802577537405117 -1.0250045343144487 0.05175275181872253
C -1.99738719720376 -0.8333707839984458 0.5324129887132637
H 2.5810720226300337 -0.2032887954583013 -2.0843102533793645
H 3.2313998653082363 -0.6493333366456775 -0.45713609568183244
H -0.6671982300873398 1.3140390684174434 1.4706180477194986
H -1.0219405480724246 1.9051545060538266 -0.1589138488064401
H 0.6357234895179606 2.088329552900991 0.5574921840973316
H -0.5605900715541797 -2.045288107116976 -0.2712802857069233
H -2.723205739701942 -1.6067046031123016 0.6062948747896852
H -2.3281152065521336 0.15531897086233756 0.8874855241897041
