37

C 6.096013335091817 -3.58775261100049 0.3417767180583643
C 5.072555730678164 -3.0748234053086074 -0.3171155698945784
C 4.076724718890389 -2.5001563970419682 -0.9508272691906822
C 4.033424929626332 -1.074866232144189 -0.8787976300646136
C 3.2647888978846336 -0.5891471203060203 0.08079782474086931
C 2.4310017617128787 -0.16931343022596831 0.9933869434143351
C 1.083197372349438 -0.008552143584515389 0.5823324119689094
C 0.5336738561237074 1.106714558935789 0.9576333057796428
C 0.001104522507479666 2.2945728925305007 1.2085021849975095
C 0.18376812863632322 3.3043169197450535 0.24009591862031415
C -0.3251751411481401 4.522920893381587 0.4274726383676509
C 0.27547392929162223 -0.89183856824601 -0.17683076239013762
C -0.9648017737916947 -0.7101254546193713 -0.5367394797002916
C -1.7533688739779327 0.5105445417688864 -0.18649960270783564
C -2.818176775393861 0.14753877186283806 0.8120740938306995
C -3.9264455430613463 -0.20405056054988757 0.2109410594223626
C -5.196986329100879 -0.6283891596954404 0.8882289899545167
C -3.7268776393057546 -0.12167485604818103 -1.2575376670380727
C -2.6062277582072113 0.8845177527940271 -1.384780825153572
H 6.973861019665357 -3.7000197076539743 -0.23731986739180624
H 5.8947277029386465 -3.813104369411663 1.3542879476120948
H 3.4256102419130037 -3.1757027772131328 -1.439934503197795
H 4.50855464411888 -0.339558380702629 -1.460444406393266
H 2.8718668107711585 -0.0009958243923445743 1.9375208845470682
H -0.4987102002602463 2.300614661481703 2.1320034211968535
H 0.7248671410268462 3.1644335945474595 -0.6786859327770205
H -0.8834038765202592 4.740786837079896 1.329661613953078
H -0.2149090136130907 5.333612866568554 -0.28237227276463633
H 0.7458738294383445 -1.8391712512729124 -0.500486277762963
H -1.4628710542289665 -1.4918791869894779 -1.129128327656413
H -2.691529388900959 0.17155607184228933 1.8912785248450983
H -5.067775572994657 -1.512524446984599 1.516290768035739
H -5.595688864422037 0.1924491845964339 1.5262312614652143
H -5.975489734179302 -0.8444456012906533 0.14048781472928915
H -3.3777029589098877 -1.0784798831776905 -1.6964914874292605
H -3.0521397389196445 1.892730599881899 -1.2670008363069354
H -2.058808335729075 0.7892612208426175 -2.333957089482026
