22

C 5.16828811788784 0.4727446375122462 -0.6913051553549602
C 3.984745316416418 0.016199428316022595 -0.39440926716043867
C 2.7514896080213207 -0.35372392780545386 -0.11809748497711206
C 1.7295079420654447 0.6802515177781441 -0.1972479060854814
C 0.3755912955127031 0.1546511344135628 0.14086263513095582
C -0.17139159518000985 -0.8644416522062797 -0.46524107566386097
C -1.4994393717753403 -1.083155643680252 0.13968544234404973
C -2.5308369394910826 -1.0083009616713579 -0.8854927854725482
C -3.6189370549474824 -0.3381494301788676 -0.5767237585873538
C -4.668897230821953 0.35197356945172087 -0.1750593633321951
C -1.6478981114858888 -0.061528200742944614 1.1703583627972756
C -0.5300797309193909 0.6448497345263277 1.142007271269211
H 5.728244730752124 0.8480866218039439 0.13673159795977619
H 5.435710288106933 0.41874674579806176 -1.7215224092109922
H 2.664044939501493 -1.376887053257415 0.13064528170884765
H 1.9686279212417719 1.6129053638399549 0.3395940732129776
H 0.21165377103937086 -1.4957121759045353 -1.2789551896592564
H -2.5438576592571773 -1.4166222502331784 -1.8608948175436038
H -5.4135197108066375 -0.22717534056842045 0.3007477269886178
H -4.614607006910054 1.3866079182631568 -0.3861918253932173
H -2.458085306707875 0.13990393833639686 1.8476691684342577
H -0.32035421224249183 1.4987760262091827 1.8008223165979733
