20

C 0.842379456014173 3.081052313382138 0.23374744319545104
C 0.07079135380000755 2.0923292964018487 0.6460155672087218
C -0.6986322635575662 1.0859002537618025 0.9642872172151042
C -1.0825294844546824 0.18900196212740683 -0.14033304995808749
C 0.11512697476198198 -0.30062675391165206 -0.8739105523951953
C 1.1183304128232248 -0.9866337492030384 -0.058460580056584534
C 2.3447364546668075 -1.1859863505955484 -0.4950263984449758
C -1.9241108606268706 -0.9227271679333751 0.3220977540490041
C -1.6033229350887022 -2.17305707529851 0.05623753665478108
H 1.8793757605819381 2.8664460939488365 0.2704595470928541
H 0.3186495100166011 3.9445228377973627 -0.07472238625709761
H -0.9594995762310069 1.029196070995326 1.9827917190953661
H -1.7326329939139242 0.7540699582239226 -0.8884466450191784
H 0.5999238321987749 0.5645794330483627 -1.3904103704688904
H 0.8455329781850839 -1.3371909184072104 0.9245337955313633
H 3.056492797140795 -1.697201859784474 0.13846845646269346
H 2.6178383290606337 -0.8332095407359414 -1.4827955167050857
H -2.82925983828011 -0.7228962970065875 0.8941541935795226
H -2.243333310400969 -3.010244861446547 0.4093416102556634
H -0.735856596696171 -2.4373236453640335 -0.5053707088122831
