18

C -2.4043686931645167 1.8008495236957502 -0.1346508691624306
C -1.296354099474683 1.123719989771092 -0.15732423147687843
C -0.12092787997376186 0.6251328055603873 0.015533440344882769
C 1.082008524124232 1.3866330251912424 0.23491696492531952
C 2.2629209590458577 0.7762425140159489 0.4057449270031825
C 2.3779269895982584 -0.6770296186265741 0.37672302309377387
C 1.1367909462829222 -1.4230690986545944 0.15170656518866113
C -0.04325096351002228 -0.7888819311890384 -0.018204821880932937
C -1.2211161542626976 -1.6552610594318629 -0.23688258753187508
H -2.9168783098337867 2.0022841001063245 0.742597014386996
H -2.709411531397381 2.111095633316816 -1.072410849338876
H 1.0308301754925342 2.4708075989497114 0.26221476316840386
H 3.1343252194070166 1.3876160431463338 0.5661671002984915
H 3.142407977374336 -0.9852766759378623 -0.3825744827235358
H 1.1775738599346768 -2.501525732001702 0.1225530961806555
H -1.74279837354186 -1.7912180682589183 0.7374698856153601
H -1.9562878277837674 -1.2050868437500089 -0.953310340197187
H -0.9333908183172496 -2.657032205903118 -0.6602685978940332
