27

C 5.926304190549156 0.6878708588693517 0.1568527248213221
C 4.642673475001833 0.6849281417021092 -0.15166188435837322
C 3.523070501701556 0.6786766070938371 -0.8096211079138451
C 2.4027959694044987 0.5255096424722961 -1.4452646796835484
C 1.3300865276632814 -0.36306813556358425 -0.991220548202434
C 0.2207232585141391 0.106854128335998 -0.45768012704662514
C -0.8871951837125458 -0.7059589502461638 0.016100783940025284
C -0.8624574884175158 -2.070888765775914 -0.058141287909409894
C -1.9428175990383643 -2.7895538327149154 0.4072505097574246
C -3.0430667572586847 -2.1741754747921265 0.9432270020208412
C -3.080666407252058 -0.8093887650812202 1.0233965471941762
C -2.0038010723198068 -0.06578533524688601 0.5607646220878697
C -1.9883830238516513 1.3738943969531348 0.6199310376504029
C -2.1818516961919494 1.9919941267758992 -0.5128504381130994
C -2.382855706111086 2.554280248078095 -1.6934994105128254
H 6.459011583278927 -0.17714695199145736 0.4760375090624929
H 6.461166478872344 1.6320346541778648 0.07732897516056624
H 2.2507284925079714 1.0767290251252266 -2.3508917607018
H 1.4759774475294538 -1.4128915596255889 -1.1069140444518732
H 0.14742832411155302 1.1969821815337673 -0.3736511685618712
H -0.005552022066038135 -2.574323950402237 -0.476681925948944
H -1.889388723508548 -3.8561697263335355 0.33350190248577016
H -3.9066558239398366 -2.737992245832251 1.315731990591045
H -3.923737925054614 -0.25217157413996455 1.4380337999873423
H -1.8414722657188467 2.0032610552435726 1.4571400837854847
H -3.3993377404256413 2.7416556909617706 -1.9163008082272124
H -1.500726814267412 2.7348445104229206 -2.244382763361279
