18

C 3.242035059951058 0.6335712136719202 0.7174158766804203
C 2.375049358065657 -0.30764664842092687 0.46864164274015946
C 1.4286627568445198 -1.201855194373467 0.2601671093160345
C 0.08030276114845503 -0.8222432838462586 0.6496278825592962
C -0.9446222832615574 -0.6293095288817412 -0.4038455283661243
C -2.34329373231641 -0.21926863891025136 -0.01996640265128873
C -1.7870314588801173 0.9753374293073617 0.7005776953720383
C -0.3850510491188915 0.5424567465905958 0.27914438529989694
H 3.6930346411235635 0.5988602648611103 1.6755516219123894
H 3.389855551375815 1.3296028498901453 -0.08346064065195663
H 1.7838312918851076 -2.0970553852847043 -0.17253399686883777
H -0.2968938932482609 -1.1688309501928231 1.655692383239794
H -0.7134987414591275 -0.9051708539536807 -1.4328712785464295
H -2.8788693024127827 -0.8856539799232219 0.6659830427571064
H -2.9307277402756444 0.01704315548356096 -0.9412286666311716
H -1.9212003817199288 0.9338978308539312 1.7939087512561858
H -2.0737409127692175 1.930852525748721 0.21219526334537941
H 0.282158075067682 1.275412447379665 -0.1966334881008295
