19

C 0.907987901179774 -0.9943989998860784 2.407425644900337
C 1.000470575924332 -1.3888809595405802 1.1453934641927948
C 1.0715808978953545 -1.713872283377013 -0.1055779281963799
C 0.7104944442495001 -0.6846909229470625 -1.0522759524706393
C 0.764723621134478 -0.9604677199567734 -2.3358057160273864
C 0.2781380496759719 0.6769093495085262 -0.6646612806256933
C -1.1376060812515756 0.682948885611233 -0.12335866867185925
C -1.5053446358124718 2.0971819016840274 0.24856032770943537
H -0.038747902273441034 -1.163201000556923 2.844444942736287
H 1.7934452465539896 -0.56793617431379 2.7933477104869153
H 1.3900641881614189 -2.7097565106223214 -0.30564039878805493
H 0.5006166423909064 -0.21300243351802012 -3.090487513062276
H 1.0783510953837252 -1.9505316887768733 -2.6452071701072546
H 0.9768421794228936 1.2098166297181612 -0.02613829288572311
H -1.8409439046879772 0.3421852170081276 -0.9079788795777356
H -1.2367351682916456 -0.004126363143173906 0.7209865684929072
H -2.069106118898166 2.0456047673207256 1.2004480987533148
H -2.042415782747003 2.5745781455384864 -0.5723006429365532
H -0.6018152480103061 2.7216401602494154 0.46882568607789227
