21

C 5.223342274066385 0.22362682349920787 0.31118414018965895
C 4.036132569744251 -0.20102819065205674 -0.010606166556500646
C 2.793657466846655 -0.40394191565704823 -0.33621053729445705
C 1.5119464580118132 -0.479315580931948 -0.5556565485105072
C 0.6750843318583919 -1.2702187032217864 0.33606585522950855
C -0.6474512655582564 -1.252350892676973 0.2018887047338188
C -1.2812337513592424 -0.4378315454653839 -0.8435940230196968
C -2.440547281469532 0.3439969862591564 -0.3389309702382794
C -3.571166363810372 -0.19872474508732407 0.05400892485033521
C -2.2850912739044196 1.8224059876775742 -0.2862222135936811
H 5.626036511713375 1.1490946031356313 -0.07403152313767158
H 5.819779281568415 -0.3593237118466662 0.9766336409542746
H 1.0616166853511382 0.03775198562299522 -1.3912956687272755
H 1.1265233156675332 -1.878434005656446 1.1148486531188226
H -1.2682381761339734 -1.8289696932934114 0.8510810509456347
H -1.5329301165508336 -1.010113549129734 -1.7570743343151136
H -4.388470184837543 0.40441934498165155 0.41374391069715266
H -3.674394974151994 -1.2855718352797971 0.011009247312475937
H -2.846758756433571 2.33107632820183 -1.087677112454559
H -1.2156550006285374 2.134216618809925 -0.2734907596541997
H -2.722181749989871 2.1592356907103087 0.6772781237623675
