19

C 3.0305056826975054 1.0249412383551333 0.666255129033548
C 2.4464561598622208 0.05471961902487126 0.023244775174288745
C 1.7856001224193725 -0.9069837254574528 -0.5658034077391009
C 0.5369026522755447 -1.3235079733782775 0.06322009288044943
C -0.18624836869768072 -0.17064255660891892 0.6907343936327656
C -0.512041585445782 0.8499287607472988 -0.3436236727691075
C -1.7223016739104728 0.929526803236177 -0.8788648989504788
C -2.768664721042641 -0.027992904282281617 -0.4270921781413867
H 3.7205767041468385 0.7169842887535266 1.421849949735235
H 2.7551518533782833 2.012383200333465 0.369006528722017
H 2.243108569064106 -1.2741307625936962 -1.442681928056056
H 0.7876225765983298 -2.076769090377813 0.8499047787999566
H -0.11594858135496487 -1.7616148196442922 -0.7177790478223863
H -1.1540984778351144 -0.5274895577119892 1.0999197918488575
H 0.24891871953645944 1.5440242176739236 -0.6701455784813085
H -1.9580762369665452 1.6666012251114601 -1.6260843513022376
H -3.0907021036702718 0.2832573197234705 0.5773934727883936
H -2.392543843644069 -1.0567463408265698 -0.43710103045565285
H -3.654217447410984 0.043511057921946476 -1.1090836907846
