19

C 4.162881131620792 0.5172838682133678 -0.32387715260507954
C 3.0769288545058266 -0.1833886826541345 -0.1689830058356053
C 1.9229394306338943 -0.7812915160216338 0.023738784847322586
C 0.7228363009115019 0.04266944461034116 -0.030652738891474407
C -0.5322253136500514 -0.7627676384049092 -0.10544703131782071
C -1.7143278608509984 -0.27279400851026386 0.18672271664503806
C -1.8476332172488648 1.137136896167926 0.6130909948870539
C -2.909665507722628 -1.131582524944259 0.08887287717078077
H 4.5990082872402525 0.9181306600097896 0.5665727258538039
H 4.482637290356297 0.6036878211402816 -1.3377789322631815
H 2.017364279787379 -1.830552230299608 0.20147849926564076
H 0.6560424882769679 0.5995000167242162 0.9504152842333216
H 0.7362986034330465 0.8071571501108263 -0.8414505009002414
H -1.0217716305049336 1.7646388402923125 0.1913415657074294
H -2.8262321216864 1.5071335224085871 0.22017609510640446
H -1.8757919061076695 1.251501769438772 1.7268764998895636
H -2.83727672051212 -1.769149687455757 -0.8345225914794632
H -3.8572930936179923 -0.5658690912941867 0.08958488025185793
H -2.954719294863777 -1.8514446095316173 0.9319042878404264
