35

C -5.624418003044416 1.6223243557127394 1.1144790675962977
C -4.672395368986509 1.5556477927603083 0.21360619648500911
C -3.726592435963863 1.3937200452062064 -0.690026482105999
C -3.4144697692365678 0.01933233336571586 -1.05701494438043
C -2.173121815852679 -0.4749543538331726 -0.2859620120430877
C -2.4043705429995113 -1.4448227986182882 0.7429897780460859
C -3.654821003350447 -1.8809505434348432 0.9977468249062564
C -1.070114106218332 0.056395910487393265 -0.6725869070681068
C 0.2828403686291903 -0.12106428580970155 -0.23113449600744862
C 0.7223913584788796 -1.0149326512671197 0.8360176187032271
C 1.2220239886137583 0.6183561125910402 -0.8775043433374575
C 2.6482245974786323 0.5835830472116661 -0.5803730047455854
C 3.081707408317999 1.1625163789977653 0.6812397186737598
C 4.146588845734168 0.8118408741770701 1.3671628366321527
C 3.25914329008311 -0.6391837555916285 -1.026670190706649
C 4.529605288298983 -0.6091115646512736 -1.350468332902413
C 5.785396138409805 -0.4619227289939073 -1.657619711509655
H -6.604446217634533 1.6808345281921746 0.721479044146818
H -5.281031424029524 1.6075030118207931 2.119732743157103
H -3.310770718456161 2.300138907037359 -1.0364021407298856
H -3.129126345652963 -0.038048762573262326 -2.123071089342968
H -1.618360754683929 -1.848868242566853 1.331666353085249
H -4.4554367026924435 -1.4905955068320695 0.42151701918119633
H -3.8425226237616243 -2.604164791419869 1.7622474253316216
H -1.1900179654738658 0.8083135924215885 -1.5246681561039996
H 0.27194862081202087 -0.7347246212284784 1.813219635709013
H 0.5048765112513663 -2.085252851946611 0.651569711376003
H 1.8622584502217876 -0.9203941416436624 0.9392676189797199
H 0.9070129580944807 1.294955386598789 -1.6819974707851195
H 2.4511831933657047 1.9719857796677387 1.094905453439169
H 4.389419769574476 1.294862427144994 2.2899467164262046
H 4.820701354389762 0.02609783140096762 1.033983465175981
H 2.8275838301904637 -1.618181725938631 -1.1442223019632818
H 5.988569769778145 -0.19739447138240981 -2.6708651251554323
H 6.470540056314678 -0.6238405170622354 -0.8506050899405527
