33

C -5.101104509881764 -2.1678481592162218 0.48915290492839536
C -5.053066714344115 -0.9847887453505946 -0.06548577823007268
C -4.930226181647964 0.23552295239694257 -0.544898313550099
C -4.208008187539717 1.1958785934244676 0.2859304486766824
C -2.927412351701705 0.6260572503845787 0.6937534071042566
C -2.2801294277013624 -0.03725914190735923 -0.23801657971769813
C -1.656078073972656 -0.599522995709607 -1.2431356288065196
C -0.8136736149889867 0.2851085475846994 -2.040194279955169
C 0.5599651232103023 0.24312059263664504 -1.411354629888272
C 0.779760422120208 0.6657449483135334 -0.19113190463081117
C 2.1301116280460417 0.6106469024306381 0.39025220697893825
C 3.1337309669091384 0.045346788057617195 -0.562388282425996
C 4.4869185645516625 -0.036264448506615005 0.014446352246945581
C 5.062218974777766 1.0600298652403577 0.4710507858606463
C 5.172919773765625 -1.344441642655653 0.07013785112706769
H -5.9414125159562055 -2.328793858565267 1.109984473710001
H -4.2885330956394565 -2.815449501082165 0.24540175147707202
H -5.3824827463415 0.3618315902097509 -1.4924970988739186
H -4.857752080846932 1.5060926956084137 1.1313421205078529
H -4.0001972831412305 2.1368973203828285 -0.2855125249201401
H -2.432013493263726 0.6607565626372706 1.6200506044494787
H -1.8543220038607173 -1.6291868703461856 -1.3376171687935157
H -1.1978292262917405 1.309443696928678 -2.0550712706679723
H 1.3303341626203877 -0.16738343266085995 -2.062353805964561
H -0.07903094809302542 1.0529660683964086 0.35757241648758387
H 2.4864952566262866 1.63092794429501 0.6931321299495344
H 2.1025364664915567 -0.01887318708493012 1.3071782961885827
H 3.1157808515269316 0.6047235834726676 -1.5256574380700696
H 4.53664361149579 1.9913237741324572 0.4151239959552082
H 6.044704954386408 1.0073750941973731 0.8911091812146339
H 6.284746948827784 -1.2479552442351516 -0.053015913020979404
H 5.002786058364536 -1.7815600215331229 1.0829377770710686
H 4.773618691494505 -2.0704675218768003 -0.6708762634489548
