18

C -3.9845611797276614 -1.1788269732600625 -0.3984070759191427
C -3.251891874015968 -0.07715627395008849 -0.355590579105397
C -2.4684387570717106 0.9684162594289072 -0.312516643173885
C -1.0501501182066533 0.6846210267647904 -0.29110941859706485
C -0.2979210126496519 0.8525177034950921 0.7743539741489907
C 1.1104033869695804 0.5596813948418597 0.7590717669553145
C 1.8059501064352688 0.10944955532328664 -0.2601563262855872
C 3.230991647914145 -0.12789404484189262 -0.08040878239746747
C 3.991489875946889 -0.57540896388431 -1.0466677059506762
H -4.202666678092346 -1.5125074531226894 -1.3744233628597358
H -4.242324113825988 -1.5618474022479576 0.5483950059002815
H -2.9617461363300994 1.897672218329788 -0.29837748853757906
H -0.5961794605039921 0.31884224634582964 -1.1944248981755594
H -0.7571803979117708 1.219130638027613 1.6768580173047003
H 1.3859692710531124 -0.10024943877354225 -1.2388918922872072
H 3.7181584114707777 0.06157178933606287 0.8768775368394816
H 3.539003103849366 -0.7770898578578208 -2.0208891176776422
H 5.03109392469668 -0.7609224239548706 -0.9564715800075931
