13

C 2.576501815210514 -0.3365886915032009 -0.9775320893120689
C 1.5220389854281045 0.07144084095552203 -0.31335424270482776
C 0.4348110256048446 0.4114918965423752 0.31769131065584594
C -0.712086753367676 -0.4966696783903826 0.17492729019989928
C -1.9690462766918602 0.3771773495977296 0.26014757699815994
H 3.2266989556765027 -0.9681351219116048 -0.4291578804135318
H 2.6401051551234946 0.01565684163269374 -1.9705514588625448
H 0.49608581437937366 1.309534127336554 0.8674329261153543
H -0.8073489392331492 -1.2337462679996647 0.9941452929158371
H -0.7450479741879756 -0.9754043820740458 -0.8369214531528072
H -1.9473805781473628 1.0086501858652195 -0.6549111635155197
H -2.8396656501529374 -0.27046980321540726 0.3416221535683639
H -1.8756655796418369 1.0870627031642095 1.124530379656677
