35

C 3.046210801062368 3.97477134996174 -1.2234059157799153
C 2.849651884793132 2.8662909453458574 -1.9015066242291387
C 2.6433575992973264 1.7209555841309256 -2.4910866218375696
C 2.3800897733478212 0.5736108081530834 -1.6229884682555562
C 3.640797288144661 -0.2821088036312365 -1.5928221275369745
C 2.010914085147319 0.8880911233691958 -0.2649061878521093
C 0.7624628361102045 0.5411986627218539 0.06589847532040255
C -0.4315348138418961 0.17504121669380232 0.2738550376332489
C -1.5048534037028036 1.1201482431908423 -0.0065391070541947986
C -2.342839511415115 1.2104042162293809 1.2249195158832038
C -3.4626054857022455 0.5527266413349653 1.4601033470182163
C -4.162033113400505 -0.40264283474916707 0.6178762341213181
C -4.631890340428902 -1.647771494650413 1.1983070168168306
C -3.9650084023887535 -2.6875268496130564 1.5985807801847407
C -2.479258837149537 -2.6904047870666754 1.4895581843626582
C -1.9073106670933466 -1.6713683245941848 1.0610723762828254
C -0.6636095182500941 -1.1718834616452933 0.7786507541042207
C 0.3891044395431331 -1.8961979640843951 0.9536739429872755
C 1.433668017224886 -2.691119471075764 1.1279239187932681
H 4.059265595948264 4.157549140741408 -0.956670945794751
H 2.171924578277389 4.538363012807664 -1.0313593998703126
H 2.6907241235144728 1.754203379709918 -3.5450182729411126
H 3.382789512866905 -1.3168139660327673 -1.2541588976537679
H 4.149398495758412 -0.28888199260679465 -2.5764078487911966
H 4.371729191961657 0.12720020571200868 -0.8606324765538462
H 2.498340825924306 1.3311782561638255 0.5460979887388601
H -2.1412448453451516 0.7224905180467902 -0.8128279723704597
H -1.1658702625127428 2.1142608951283215 -0.3493061427112999
H -2.023418680185159 1.8848934144150482 2.040146237174771
H -5.086297145196922 0.11625848219957972 0.18655578762267777
H -3.549680041493794 -0.5777679060529274 -0.3236176818101927
H -4.462869718689793 -3.5331491648910394 2.002166060528355
H -2.0221067155264243 -3.637170496259808 1.814723340831711
H 1.6791620186921203 -3.2611535216995984 0.28046258042464156
H 1.8428404347328493 -2.613675057428123 2.0926831122184866
