16

C -3.331031086199832 -0.6998331880688522 -0.23658712482984373
C -2.047095716922517 -0.5294440904661764 -0.2189529716238234
C -0.7954748845437265 -0.26226577714837607 -0.13564496701426174
C 0.03461568696853601 -1.4065681996388038 -0.3176432357839948
C 1.379231657134852 -1.5059330886696316 -0.23589795950737755
C 2.266754147143391 -0.40471722419545825 0.06850097965963867
C 2.063297235214019 0.8734003060835414 0.29540562829607514
C 0.8091362577726791 1.617222216822089 0.3110841271241233
C -0.41005703115545317 1.0860763551923847 0.11952571388700592
H -3.7917101668486533 -0.5991246324318262 -1.1472822215213179
H -3.8170658140725657 -0.921258261900234 0.6390432527781349
H 1.7573394935632702 -2.479843652096767 -0.4159853585387804
H 3.319505144889646 -0.7305675617040257 0.11322492431997142
H 2.965147681689597 1.4865641168659498 0.5066662204958322
H 0.8132242986875484 2.6704531702087007 0.4850926773255462
H -1.21581690332105 1.8058395111474976 0.16945031493324997
