21

C 3.608084880189727 -1.4798375329570692 -0.3159969102546066
C 2.9820374312285054 -0.49305903233293935 -0.9134592583907191
C 2.2914105642164118 0.44147404055350326 -1.492751151752593
C 0.9439047169322754 0.10372747730387397 -1.8755518553402515
C -0.015221769321977888 0.3922880279108215 -1.0184902508460127
C -0.7533628755248363 0.816325530352054 0.0029547551326808592
C -0.9780772366723309 -0.1507536136951526 1.066755677412115
C -0.9023612006193539 -1.554917321569409 0.6626870293671117
C -2.0144709886903587 -2.213561899987579 0.36965298855394385
C -1.2365263957934578 2.1645157333994516 -0.05366597961839129
C -1.9722257033642296 2.640563143174438 0.9283779018404212
H 4.145293176660282 -2.122828782840899 -0.9746709054477714
H 3.5012527505513287 -1.5151699857656842 0.7430410575551857
H 2.8031521953902225 1.3628211152548744 -1.6216712633331822
H -1.9500730970953173 0.06535556532146855 1.5524351695081822
H 0.07909791318289454 -2.0177451232936074 0.6157650080245195
H -1.9576095657141914 -3.2565794132797206 0.06955647516682611
H -2.9664758099347206 -1.7133599579456709 0.4302243264950826
H -1.0085795198396457 2.8017868780134605 -0.8897328869758828
H -2.351447242063561 3.661362482295197 0.9092353871427645
H -2.247802223717922 2.067592670088553 1.8053046857605966
