32

C -2.4286955543688666 -1.9013456821455181 3.556154722479062
C -1.5561191041748363 -1.8077470917885055 2.5890702947087085
C -0.9309483779625992 -1.394163122535854 1.5052358228507194
C -0.011906005875525308 -1.1289797603236758 0.6390253231890999
C 1.0370136335597324 -2.126579180940127 0.4315750906503746
C 0.9021899980507264 -2.8755792086957404 -0.61398917155701
C 0.7004383597562698 -3.604239019006854 -1.6995167950541519
C 0.03457956989495685 0.09469001570203542 -0.12075865050567534
C -0.8783016534785218 1.1968555557881675 -0.08437050185379526
C -1.950970578768905 1.319810333974468 0.6353905811884792
C -2.792295023232486 2.5432485192292007 0.5496330613856112
C -3.875478278029145 2.667803962268073 1.2762260821898994
C 1.0783959524519553 0.2497584220925666 -0.9854553629432431
C 1.2045876101019084 1.4704324624348308 -1.8023367485796298
C 2.3841374919793097 1.3456089632489423 -2.652676090878123
C 3.5116139309398995 1.0608551416779985 -2.0610265551180205
C 4.597489568771608 0.7740020555454883 -1.3786779180780513
H -3.3962852505759575 -2.287490697559314 3.342914262051203
H -2.173531196818951 -1.5941358797501777 4.547459375358256
H 1.8839569514815058 -2.305265049996555 1.0302179375069778
H 1.135456377527749 -3.207671904389249 -2.5763216792328136
H 0.13127635466529966 -4.480361843102976 -1.5344094937803985
H -0.6764960409383903 2.082886441716737 -0.7447348529614216
H -2.2642754377742382 0.5522505554073504 1.3049170489263198
H -2.4886784735839917 3.323075722767027 -0.12417405584887807
H -4.146544465435729 1.8533787174817475 1.9459783174471457
H -4.495787621758127 3.5456746242238806 1.2269268521623347
H 1.7804332603720165 -0.5626907402528336 -1.0236783114837582
H 1.302281715053481 2.3879040307026025 -1.173760476139526
H 2.4601845273511196 1.4551152673585301 -3.70553476759692
H 5.140296198833353 1.6146572803143824 -1.0390283066652277
H 4.781981562016301 -0.26175889192089435 -1.2602750340493474
