32

C 5.676551986338241 -0.6404866888507164 -0.8703885847285894
C 4.754585741041742 -0.22244689415524285 -0.025720415095874395
C 3.7911652366012993 0.19917945912910848 0.7459585466288154
C 2.537614747501854 0.5173857407886843 0.07701591700081599
C 1.3294293549166742 0.3373601545009131 0.5812691992532862
C 0.8539193194244012 -0.19628399132031643 1.8675456635190528
C -0.29682683239228536 -0.8768834527121079 1.7793478326494694
C -1.0471060879695955 -1.0993598407471106 0.5518267102190039
C -2.4637920634596853 -0.7396602211868216 0.5616236786044242
C -3.467909026105729 -1.4536837346970868 0.9759274691430998
C -4.664409171382082 -1.9761425386004867 1.0728589618758997
C -2.1062681155904617 0.5594389247772957 -0.0269451373787006
C -3.025950993792309 1.0987492655278102 -1.046813407164183
C -2.846142937623223 1.074743334077806 -2.336203340758376
C -0.8339717111879918 -0.08905532719881139 -0.5473865024563368
C 0.327970736224095 0.7745831325462986 -0.3908617181429187
C 1.0814034215268604 1.2238803155229125 -1.543966000387526
C 2.3696250024089007 1.073872972409031 -1.2626354850358688
H 6.277840672875272 0.12907370208472754 -1.274249518573344
H 5.683082695452917 -1.6865094346480696 -1.0244236363850086
H 4.024711069756404 0.26363379220255634 1.7691842828774211
H 1.423774615386483 -0.022357018006009192 2.7317129306686336
H -0.6797908961610056 -1.2835322455039624 2.7034094471772856
H -5.149886054194282 -2.504493323394773 0.29036315366589915
H -5.116382578885237 -1.8276189687253535 2.002278564361625
H -1.8464825121319621 1.2826931848717158 0.7865776064114228
H -3.9521845131909283 1.5643367907017014 -0.6560584883341037
H -1.9689480548757965 0.6372698378872539 -2.765674936916438
H -3.5928176663651636 1.5040756955284058 -3.0125073238815894
H -0.9410883332706534 -0.5588357470798484 -1.528699789744422
H 0.6722094374111729 1.6203063507270836 -2.489078929933073
H 3.1960735117128 1.3167667735434532 -1.905108684147087
