20

C 3.7076238405812165 -1.5424417685817666 0.6759941948584887
C 2.4935103883831804 -1.0912451842678006 0.8423150113548948
C 1.3029699110916537 -0.5411556748421 0.7795804637234628
C 1.0679313331956943 0.34624396641533367 -0.41843074004377784
C -0.28187303338434977 0.8721254054305695 -0.45350325670287966
C -1.5153510799218632 0.14763547770014745 -0.5143318212892753
C -1.8066770205989462 -0.9110092379774384 0.1817076661642262
C -3.1122292179998565 -1.5872217736820964 0.04479844541258375
C -0.4221906449538276 2.1671235714317536 -0.4276637737451275
C -0.5027454337282439 3.471646108747869 -0.4013265617787439
H 4.607239337515228 -1.0178865875547445 0.937175022532155
H 3.8183117537555495 -2.517158631196277 0.23897230697967842
H 1.3499479239092809 -0.2190373069215246 -1.3536952379489509
H 1.8376245814604388 1.1390680473860952 -0.327999137902996
H -1.0863925937694863 -1.3125808251111746 0.8772952813958133
H -3.772025264565536 -1.204390493643629 0.8719926270589017
H -2.992410051805722 -2.6932628469316287 0.11812891188338077
H -3.6341106889755626 -1.315622671056185 -0.8915066773901639
H -0.49583452822592977 3.9275755956282845 -1.351170090209465
H -0.5633195119629139 3.8815948290262825 0.5716673656478175
