30

C 6.320225486400351 -1.0496364365921413 -0.1273684767976008
C 5.757287411440372 -0.27548876290428703 -1.0366289530626829
C 5.11435759809294 0.4374284518324116 -1.934530484249343
C 3.752197633295541 0.015575411562601438 -2.244277004500848
C 2.8054328894923697 0.9322630074895931 -1.5628222657176676
C 1.9310451088038787 0.4877732264252183 -0.7062397025230049
C 1.073429558298389 0.12814009786766326 0.17005675755832067
C 0.1790937476031965 -0.29521438311968584 0.9957013125242147
C 0.1263324790013586 0.25366790413414875 2.3698075444336553
C -0.7782879967483247 -1.3067829352021467 0.5899349513544242
C -2.0180670977580197 -1.0257131892946452 0.25542606730996714
C -2.4721571416799866 0.35137087647252685 0.28582292783163804
C -3.719404357967734 0.6489893345332993 -0.04893465954429216
C -4.6215557194900185 -0.3844521598002231 -0.4409362180781345
C -5.873631671826964 -0.2434885930272547 -0.10487410587757805
C -7.10968119417452 -0.01470680188580772 0.27703335363191056
H 6.168398245722112 -0.7297286193270414 0.8678682418557975
H 6.840909316616289 -1.878160387384111 -0.5261863749238935
H 5.676441523126208 1.2410372495216324 -2.3255861761187893
H 3.579017727021196 -1.0338549578008074 -2.022455353364631
H 2.8920531717263613 1.9923016970660792 -1.8264759534528083
H 0.3264175066751862 1.3429053488821112 2.3306562861389786
H -0.9226615944723732 0.14930963083591564 2.7430724154646455
H 0.7656514259521152 -0.2814987112151354 3.08240304159898
H -0.48977342474816066 -2.36127697023184 0.5490758334980572
H -1.792447057998902 1.1465253819805097 0.5831491005880758
H -4.0429610297976994 1.679927346070945 -0.02132434257548348
H -4.4172126347791965 -1.2804626171357048 -0.9835176772192673
H -7.355546431463444 -0.39893020488781517 1.230892977049222
H -7.694903476363317 0.523625200152573 -0.41874306283163154
