25

C 4.368421963491018 1.461306899124157 -1.398655740341031
C 3.1986903697433915 1.1023515100355261 -1.897498270507411
C 2.0290098982187987 0.6956955338171795 -2.3294064891881674
C 1.3620799407378776 -0.2767247583468318 -1.513916495508272
C 0.8881206516714607 0.08759263958051869 -0.3282756376422433
C 0.19372591443160203 -0.8731981372250356 0.5504902603301333
C -1.185449625462002 -0.41815539937619295 0.820544235195616
C -2.0341625664631677 -1.2315648062720164 1.6698699707707956
C -1.5795513886832275 -2.3447524930237638 2.1825642724673937
C -1.6629298680664253 0.7082796054853565 0.30873077437915536
C -3.042888198897738 1.1684574281659221 0.5759282377849878
H 5.181155279837572 0.8712648453227313 -1.7278696777726559
H 4.324919536968223 2.287324045927273 -0.7404961860822892
H 1.7210773635588794 1.1427104176737417 -3.237528829741151
H 1.235498757031812 -1.2923568900812468 -1.8364101204488243
H 0.9910701194324458 1.104486929106966 0.04454938972612652
H 0.2506710621822167 -1.9108237660528549 0.19270222666083192
H 0.7460204090427773 -0.8520238856161881 1.533018998559675
H -3.043899017486431 -0.9210136476782573 1.8817467487128987
H -0.5781362489549212 -2.658807364044834 1.976208901523045
H -2.18574943847323 -2.9575745959025292 2.8091305712595602
H -1.0060350440388366 1.288234504830209 -0.3178807455285657
H -3.7364621847183703 0.36499757955985374 0.2613299814752069
H -3.2283506795032153 1.3311089154149485 1.6574638173666072
H -3.2068470056029947 2.12318488957614 0.0663597110660206
