26

C 4.770607223809379 0.2581861892620121 0.31051339854794086
C 3.581518859626634 0.039236386497131515 0.902389367914315
C 2.5968392186647278 -0.2057149415387378 1.6272475706785776
C 1.197737929037266 -0.13307923255630025 1.2586328356245613
C 0.4162848895642165 -0.4678828645354169 2.30333095779548
C 0.6412431120661534 0.2378080565508324 -0.002478892621421065
C 1.493936400288099 0.5577579476946649 -1.016480522427418
C -0.7894391642855618 0.32577135363213433 -0.36127990438084384
C -1.8691447856810086 0.10755718237269903 0.31479149771818626
C -3.1234172944444447 0.34090278336350954 -0.5207299062807136
C -3.973554313843108 -0.9027976262030997 -0.5500271989425195
C -2.5682327255259843 0.7303276286703003 -1.790964779938299
C -1.2562037668817851 0.725674273947981 -1.714260594152475
H 5.072445675866717 1.2497853935443195 0.4237588782067376
H 5.127708737798868 -0.6094728672465194 -0.14137331331155778
H 2.882997302336073 -0.5067653818921903 2.65390002114806
H 0.9277589564077152 -0.7455615292348522 3.276513632090835
H -0.5885436302330669 -0.4872394571790956 2.2625157840667893
H 1.0743537722707703 0.836298144156718 -1.9630025213085418
H 2.514261585206748 0.5462402273734525 -0.927927796526238
H -1.9938227114559335 -0.19916685707170723 1.337077349595148
H -4.389489168897398 -1.0000209496198949 -1.576471118812943
H -3.2596640335159957 -1.7679062417316704 -0.4401763248540079
H -4.744749568468055 -0.9066218411995417 0.23716255844315223
H -3.1480019393035104 0.9916686170038289 -2.6876688377600706
H -0.5934305604077564 0.9850156059391326 -2.5470137693282955
