21

C 3.502179695355432 0.584465143294545 0.04250758087926075
C 2.5491063782906473 -0.20846212620142965 0.44651102589734704
C 1.5424633303541953 -0.9345857954783078 0.8404521359803074
C 0.2413617404668636 -0.32148478335956443 0.7799416319425083
C -0.8855562688563083 -0.9726311246648942 0.5639895649906016
C -1.0219665969482392 -2.4453512081345266 0.3446767017660816
C -2.047611457080454 -0.05499609862672941 0.5648534152252785
C -1.4230914672827024 1.2720634749309117 0.3313850632524659
C -1.9696744808947715 2.298913532299852 -0.2788316259502483
C -0.0614685365866819 1.1466409014108363 0.946030364197157
H 3.944049190528272 1.1841802620807111 0.7890638025214978
H 3.7170148156762473 0.5277570446663773 -1.0013779381502452
H 1.7960979937172528 -1.9073775921638274 1.1655259632317556
H -1.8268329638631544 -2.6390332689033253 -0.39680306500246953
H -1.332992399924956 -2.9069121648164122 1.303509935548246
H -0.061425884319719216 -2.8505446014649563 0.02579112882017918
H -2.7484911893488566 -0.3446082605762843 -0.24367327443132258
H -2.9765945951405017 2.223705712103053 -0.6708439562589021
H -1.4460509379100703 3.233970244829927 -0.40847550152801376
H -0.13382115516964832 1.3426683387501868 2.021293128861929
H 0.6433047889372053 1.771622370023969 0.3971592742746966
