44

C -8.343297089157288 -1.4817120624264206 -0.73367351354605
C -8.30178716045407 -0.2243042385654137 -0.3285335330367872
C -8.186431349151697 1.0055398317514812 0.11593480005335484
C -7.042539773987578 1.2784759483258736 0.9294195010137488
C -5.803981125567816 0.9880103029179677 0.5431361041912189
C -5.373552248187512 0.3732207127650458 -0.7021986822781662
C -4.054384780746732 0.2798676839497226 -0.646526548273938
C -3.5321933197162063 0.8101957777205736 0.6021500768780312
C -2.1830916565808196 0.914275091734021 1.0905792169050141
C -1.2938476308236135 1.322596583380521 0.228353131946894
C -0.45561937524701984 1.665996848822817 -0.7177233711547338
C 0.09170579264946116 0.5681517710973558 -1.479696530182967
C 1.365972877053703 0.28804918896793386 -1.3446331357651204
C 2.230404114936788 1.0484239633361883 -0.45579432593606706
C 3.5228394898010085 0.7757195842920632 -0.30923841672746966
C 4.312598092073936 1.569124750595648 0.5856200710568327
C 5.554232817117336 1.4413292893212666 0.8389742148421567
C 6.5270303549523065 0.49673895819900565 0.32911903523431485
C 6.040987174821296 -0.48613945213708654 -0.6364562714258277
C 6.471151589823173 -1.715700986656533 -0.5939738505341333
C 6.72033213533412 -2.989457684598282 -0.3443325723723807
C 6.353736074321445 -3.615359328538028 0.9134873637220283
C 7.227385407058183 -4.315544567828735 1.638930968514606
C -4.579775959890359 1.2257971875899967 1.2962997847190065
H -7.8535143625075685 -1.656479062422844 -1.6533082971698903
H -8.859263012909596 -2.1307538295276527 -0.07979141580892357
H -8.968428458833523 1.6499650109834973 -0.18967947254867798
H -7.19362763746147 1.7386484397328679 1.894971733107357
H -6.00269314252053 0.05691367056947224 -1.5089677037137603
H -3.396091300665905 -0.13716319879766273 -1.4197611539808788
H -1.7964743296752699 0.7078775527409492 2.0489754826615285
H -0.29154346938068876 2.698267942921174 -0.7995886243253079
H -0.4923010283081549 -0.03917086326507667 -2.1587297766270983
H 1.7955632378897326 -0.5229301014219536 -1.900164473609524
H 1.820214100681218 1.8658972445267075 0.11080425028051788
H 3.901381691002995 -0.02996924864248718 -0.8751367758777886
H 3.7954095064419837 2.4082748171333663 1.1393277990564388
H 5.971000203298386 2.186045599592517 1.5846877553583838
H 6.994863756870495 -0.06171034058234245 1.2183535236391434
H 7.374889054293015 1.0736536136524104 -0.16983161668391006
H 5.337092721897662 -3.5015637652501868 1.2600058244573307
H 8.246180661015304 -4.457811300122776 1.3396209797602765
H 6.911522997407933 -4.758324520172155 2.5587628478520106
H -4.562055713664543 1.6870373910218277 2.297104595373639
