25

C 6.65271571328454 -0.3904075783481402 -0.49183745048513566
C 5.467377505333794 -0.5584861200703408 0.07193243222459982
C 4.263701423052104 -0.7049462972087269 0.5666438428510114
C 3.1811554740830594 -0.40605402179865596 -0.32644507742424905
C 2.1899208544006927 0.33038644471888234 0.09607060698258238
C 1.0996059573137216 0.9268014600625394 0.3720259872592472
C 0.10531009681084763 1.7307906481220567 0.6321716891732255
C -0.8607402511839592 2.0542816916734643 -0.4535276103444258
C -2.0711238772317913 1.2158061487749363 -0.3261467015222133
C -2.104552505159173 0.10830118975770654 0.394000018979503
C -3.3369222319100014 -0.6612421963511304 0.4680722236971381
C -4.409927684370784 -0.2770823213615996 -0.16412744891615827
C -5.686324457984007 -1.0088451497379547 -0.13054483026569635
H 7.05000750049562 0.5828131498342254 -0.3810780569717819
H 7.030656626635869 -1.2513351823095817 -0.971362538513856
H 4.238033682921994 -1.0287458616787577 1.573606693414881
H 3.221045625108952 -0.8058100126208956 -1.3354063919144232
H -0.04799586846966404 2.1726342350919703 1.6019256327107192
H -0.405531076557729 1.8275507973080203 -1.4464388525755147
H -2.9571172824185545 1.5553201846180156 -0.8629164184564301
H -1.2135405211166188 -0.20266700641785687 0.9136647865497571
H -3.354860434789335 -1.5791410741296856 1.0683653744267838
H -6.493466855794756 -0.4014660188096925 0.29818840876996555
H -5.594835688245985 -1.9888080728365631 0.3945370894876378
H -5.9625917242088144 -1.239649036282334 -1.1991236497738471
