29

C 6.335657750390813 -0.9702911456159274 -1.0740754508567252
C 5.316076543310351 -0.13790843708488512 -1.15045274031613
C 4.299856606640641 0.6979858738986756 -1.1303913048312
C 3.8586643109776 1.1322952408182088 0.15529150742392192
C 2.5629568593228775 1.13538586492267 0.36429822012945945
C 1.2588742842591254 0.9884872308902444 0.4986224489258502
C 0.8040303123655098 -0.3146335299892974 0.9689447908524852
C -0.7023119730378777 -0.3829648092354444 0.7988357857506603
C -0.9605285053275816 -0.20072533036565413 -0.6682569344939696
C -1.9281520839407456 0.6177852646728659 -1.0254774657342618
C -2.7138260186357708 1.315544301039312 -0.058512060376519764
C -3.9814467073822617 0.9539421370042105 0.02251544194367005
C -5.198640365036561 0.4514010105652905 0.0969026587418463
C -5.366216751003568 -0.6675182398701872 1.0130841551769485
H 6.060986571330654 -1.9893412439997966 -1.0066117152369431
H 7.2826049223107105 -0.5020300983468198 -1.0902729471074313
H 3.9321703617049373 0.9464506559851835 -2.0882393160309505
H 4.417156325314369 1.4584673719386576 0.9876637690548798
H 0.7179432093548368 1.854834205395746 0.2393704403007787
H 1.2229364534457456 -1.1237242543445938 0.3308129566686375
H 1.1148860018173725 -0.5202829702752737 2.0054418820690807
H -1.1711275780927748 0.434082248155418 1.370318033100575
H -0.39037255316385455 -0.708285234358008 -1.4168131518681544
H -2.1176940739793464 0.7520422911515279 -2.084185133537391
H -2.4604457884457385 2.0825258622996823 0.6179734125668094
H -5.887614399207471 0.9420316449140131 -0.5315416930104337
H -6.439017007040884 -0.9862633481947211 1.0183429781555118
H -4.696483631713855 -1.5341885280283665 0.7673486743114534
H -5.1709230765355745 -0.32615502420464315 2.0690627582276884
