25

C 5.145279639434659 -0.4868697112538932 -0.6100052491500312
C 3.867262574989674 -0.7425180901544678 -0.5813288210532325
C 2.5817351856191912 -0.7619624286615501 -0.29771506059519764
C 1.9879859959534123 0.28050288765765985 0.45528860046284886
C 0.6967703472786342 0.1327654510775263 0.7253086682599068
C -0.5604726341592047 -0.1252862900591893 0.9240290373988369
C -0.8544996738623203 -0.8809665719982668 2.1304159393809208
C -1.4490917404079693 0.3758774273302885 -0.08122154963261334
C -2.1374351556579025 1.6527358443738773 -0.08329203276797978
C -1.4172390498426468 2.7215242065086027 -0.3878226273411211
C -0.4943113837991471 3.5981988825347604 -0.670812939093679
C -1.6797223046719272 -0.4057010460779484 -1.1272101664635727
C -2.1439544984258005 -1.2983157702912247 -1.9750426668394223
C -3.309630348145448 -2.095762027768756 -1.5618311992965657
H 5.8142214700425106 -0.857947779188326 0.13626072556963198
H 5.527944776334734 0.1161630778734344 -1.407007105646117
H 2.3652635750229023 1.1724645962277314 0.8571867266734612
H -1.943178014549876 -0.7856507599598862 2.355712354173088
H -0.6459133677397284 -1.970461335878411 1.9411144854381548
H -0.2991378802846547 -0.5113375789910354 3.0103533951240844
H -0.037230969542217635 4.117396033891392 0.15008366473976728
H -0.16606204726447266 3.8264919190602424 -1.6669519086973796
H -3.37499590423548 -2.2800568785199955 -0.48469657843347874
H -3.2034916347103914 -3.1019892755824054 -2.045275721517549
H -4.270096957377105 -1.6892947821509388 -1.9281329664020437
