31

C -4.66544426159403 -2.065491324868055 -0.8092562325898022
C -4.451422198655572 -1.1862982106307651 0.14623108801371132
C -4.209156286938941 -0.24538022947168536 1.0189126721354902
C -3.7295932142723447 1.0281088732036714 0.5091274211809456
C -2.720522214273597 0.9556765802739514 -0.5371459047098643
C -1.4507793408655805 0.993316798628935 -0.22036618326567384
C -0.2326645499593183 0.9364373760254943 0.19626600148333717
C 0.9459379546665695 0.14812735576960323 0.6475605950221678
C 1.411661466217953 -1.0360960034951974 0.8820476170824972
C 1.8743934166510272 -2.2341553222690687 1.047873221162566
C 2.503394542752994 -2.8996269856403987 -0.04668001084801267
C 3.6679864862710074 -3.4613045440618437 0.1997468163227505
C 4.826157954582652 -3.992954862310643 0.5378878497217968
C 1.0300402818996004 1.5655841545241205 0.5843536185412983
C 1.8482066786323037 2.2827453328179734 -0.4834749222901556
C 1.0513283970626914 3.3864361675340153 -1.074180395084606
C 1.6295222361982409 4.496927183475469 -1.5032067139012288
H -3.8285833992943745 -2.6677714132699797 -1.0467703331670537
H -5.6445866532366855 -2.0490792791660106 -1.2095418912475107
H -4.398565342951551 -0.5358864758741178 2.0273036904731905
H -4.514551966723872 1.7502715497324146 0.24427075127284262
H -2.954444722490959 0.8726133539183767 -1.5541898867961483
H 1.7522430081632328 -2.665713241760558 2.028800951688066
H 2.177126040243528 -3.016347888704528 -1.0449420640718847
H 4.762393303047615 -4.986598881834318 0.8913059308897484
H 5.6545631834571095 -3.348644719655109 0.40791158811562317
H 1.093559618671141 2.1043983249274625 1.5746610148960636
H 2.775904895729875 2.662287614599416 -0.0005426017521777589
H -0.013148166663775999 3.2883781746755454 -1.1577038322392397
H 1.0860369792279048 5.31364781337984 -1.9347940833529442
H 2.723005874443954 4.606392729527003 -1.421332597011095
