35

C 5.591292297917695 1.1769238948270062 0.8180238799802089
C 4.785225768078062 0.1882843499433328 0.4983907623045917
C 3.9286033299974323 -0.7636407549366049 0.24845056047397515
C 2.749562121769868 -0.8004500984165251 1.0575408861045545
C 1.5370905976830955 -0.847495582903468 0.4985963680278988
C 1.2330413687302706 -0.8677384832665698 -0.9209066278051521
C -0.061194646437357995 -1.0114094199233532 -1.1334143986336065
C -0.7795589870155939 -1.0794238601545054 -2.441060887253581
C -0.7575812447559637 -1.1026540285665467 0.16418726160215955
C 0.2634427597940722 -0.8882779124772352 1.2256049268467855
C -0.353833990957368 0.4161223030700778 1.5862296991750722
C -1.471656420131684 0.15413371732232278 0.6100512077937422
C -2.7747577674096826 -0.1729150916322516 1.194302612631074
C -3.545300031849188 -1.0824938192112237 0.6189966366067964
C -1.5657044611752533 1.2181193424088606 -0.3820417617469105
C -2.462320102168913 2.152567338284118 -0.15521563091018542
C -3.3854155354080437 3.0404846797914 0.1565577504885093
H 5.411122841875074 2.079275689189555 0.29476863066550346
H 6.311535557382773 0.9373442454293194 1.55641343562099
H 4.215364493806451 -1.4112637883642571 -0.5428504613270052
H 2.857167322619686 -0.7895038267873071 2.1332255045694355
H 1.9746314527308244 -0.7762749438058942 -1.7256119840837132
H -1.762267816341036 -0.6113675511600883 -2.4198049673985196
H -0.16880055056268384 -0.552124601540903 -3.2127639073939025
H -0.944963672383672 -2.1588144593728695 -2.721668141641402
H -1.3109681496730552 -2.0447542741499025 0.3354769531445054
H 0.2480178082175358 -1.6083113416680135 2.0691055616125413
H 0.23349426872050846 1.3243587050868768 1.3648145913131882
H -0.7186653008599819 0.49863766441326873 2.648888352220191
H -3.1431602720425382 0.3043386705728252 2.0919573024044014
H -3.2184836338645866 -1.5864260923293727 -0.2808877574773873
H -4.51803273213733 -1.3625344711512606 1.0089703877195149
H -1.0162164988593176 1.3603100550622993 -1.2728365798081536
H -3.034477423637202 3.8446885145856466 0.7461020658124152
H -4.346232751652815 2.8222852318307856 -0.22641223221680418
