16

C 3.8641209807151378 0.2689596190922202 0.7444161559399226
C 2.596377540031609 -0.01600146843123531 0.636714462924961
C 1.3197565045386042 -0.2817977221728011 0.4512939907245718
C 0.7640802482546871 0.14338380354978578 -0.7951130223761244
C -0.49944033721358755 0.41044317071313297 -0.9977702366374558
C -1.4727467081267254 0.2815683683161264 0.10441502858280441
C -2.8809469724987538 0.20430725320871942 -0.49130703939470144
H 4.072735453346744 1.218178786006273 1.1752927046771342
H 4.531341282331187 -0.47967624211010884 0.3885049200023911
H 0.8629009206280391 -0.7842934347336631 1.2629786879432658
H -0.8272105393621978 0.726840839707328 -1.9796904844771082
H -1.3853672467743536 1.202991576321229 0.725312033031305
H -1.284524285273899 -0.5662018230502809 0.7746134158593526
H -2.8288008220146845 0.24292734291363613 -1.605948903712692
H -3.378468108518767 -0.7355770510444306 -0.22703058911243523
H -3.4538079100632975 1.1013143790162363 -0.1666811239752792
