23

C -4.707590702805952 1.1624023877052994 0.3692176611502874
C -3.5571935649777138 0.6074297260414167 0.1015626572637026
C -2.4423150996087175 -0.04303364037529778 0.21502729557804065
C -2.158672839890047 -1.3626405834612791 0.7280474459814706
C -0.8759261169788273 -1.471150455676528 1.0413121578692466
C -0.22324231382452667 -0.19028585037509188 0.7455194849491789
C 1.0674956907820434 -0.3237366793760258 0.059044605023729095
C 1.8320006811513911 0.7867875120622906 0.01792118421371266
C 3.1536643719459017 0.7584566919241148 -0.6517194264227418
C 4.056010535825574 -0.15621422913323035 0.13391241607025697
C -1.1789366231990257 0.49584022813943307 -0.18770599993258344
H -4.95173758690379 1.69165299026553 1.2420314094543097
H -5.399604325266346 1.0223401022736616 -0.40499957864314057
H -2.942389465250466 -2.135164865212915 0.8250016794278351
H -0.440282204149626 -2.3877229831131115 1.4476094511987498
H 1.4336682896505326 -1.2368322241197387 -0.40459597821611515
H 3.5289478548867534 1.797962639678969 -0.6937581640920413
H 2.9984503785974623 0.4254566819357707 -1.6988778923499466
H 4.381426114011277 -1.0179670901470341 -0.47785842192561306
H 3.525950384325693 -0.6073983757209841 1.0215410942774312
H 4.874261277356522 0.4434244887588599 0.5447463392738555
H -1.071540807645289 1.591006200107437 -0.1980930980924014
H -0.9024439280328421 0.14938732781843297 -1.2281264115978399
