30

C -3.936226327324075 -1.7594900479165991 -0.991807980100291
C -4.566938347608428 -0.783863135904783 -0.3918617579975607
C -5.143475464247133 0.17596122489072732 0.27438989449831325
C -4.637836746252573 0.4382314744827658 1.594884816054204
C -3.36788941268305 0.681466993665585 1.8313440053634025
C -2.418439817093787 0.6892042457978802 0.7174039023860731
C -1.1271080043815263 0.9348148892069709 0.9454992297733622
C -0.20899482308136777 0.9351737026618642 -0.1845325023676034
C -0.6734726000678891 0.6726620324162995 -1.5586192036092483
C 1.0776600940735932 1.174714332579139 0.004670101049347445
C 2.0488909345837976 1.1870953413099785 -1.1017687110912855
C 2.4700992642750466 -0.1621190420725853 -1.516430667870114
C 3.366008334409059 -0.8331179480228128 -0.8381674677757867
C 3.9434006483864197 -0.22862703539113896 0.3347607382128228
C 4.8412280552166 -0.9425950964571149 0.9604869733284137
C 5.736220655378527 -1.7096866749367816 1.5380589783251026
H -4.346525210516093 -2.7232879043263627 -0.8318573057815424
H -3.093233343783096 -1.4637399461600762 -1.5620260561188604
H -5.929248482530398 0.6614688470882846 -0.23688713452491783
H -3.0714369692102923 0.8682429999610656 2.8502088567505495
H -0.7564568718744031 1.130850736908144 1.9418629832393548
H -0.5234184865328226 -0.43005223423910593 -1.7365721212697467
H -1.7454416562778385 0.8730122792129311 -1.7033870913117954
H -0.09989638596554655 1.2024528926558702 -2.3290133945082423
H 1.4487658112390083 1.37170893731643 1.008043256086457
H 2.861350670839865 1.87151998213786 -0.8656421995257632
H 2.0339709996665345 -0.6030176808849054 -2.3912471945487384
H 3.744920154293965 0.7151950507595328 0.7658319511122851
H 5.345165413996375 -2.365737195569139 2.279465367882738
H 6.728357913071054 -1.578442021169262 1.1929097343392407
