17

C 3.358037540078631 0.46015004710215923 -0.3027397447849736
C 2.2708384454266333 -0.2745959404288228 -0.13139653205972562
C 1.141381460976675 -0.9226815991929714 -1.085377191704417e-05
C -0.06876711131328135 -0.2229506717984009 -0.4133318893992674
C -1.3224309260782445 -1.1082994876186896 -0.5167735330655097
C -1.2265669203601488 -0.11087321067495101 0.5669922638546425
C -1.993768231468325 1.1790581114577496 0.5259814347380692
H 3.810712576203048 0.3468438069737171 -1.2457563489022945
H 3.6126278057771275 1.0526613511314806 0.529415440542759
H 1.24723933190978 -1.8981084520028528 0.39951458376994736
H 0.01077961048000924 0.5389297722604325 -1.1953533051581091
H -1.2153225902805245 -2.1844850811466254 -0.29379759208055134
H -2.0109451252437975 -0.905357831474556 -1.3602669059105768
H -1.0660413898436807 -0.5402217897706227 1.5880153996784956
H -1.7291350532315366 1.751938010642869 1.4594920992921714
H -1.7087357990019059 1.8296896496282709 -0.32078457398334365
H -3.1099036240305313 1.0083033149117178 0.5582173753602497
