25

C 6.279874938717057 -0.6951921716138261 0.19787626867890679
C 5.078703468737068 -0.2015857431484889 0.04113656192789292
C 3.817146985653844 0.07085521171297071 -0.10049038720776095
C 2.5456887725669826 0.30959221798442815 0.16986988316610188
C 1.5697793187663462 -0.7370452083102187 -0.1096157008471504
C 0.40425057759134675 -0.4789433554867516 -0.6559425605533348
C 0.022952543492067982 0.9105047793223303 -1.0185971889795307
C -1.2323117726128527 1.363010315443362 -0.2829908927702002
C -2.384490407588668 0.4566666786264724 -0.6300536606841267
C -3.5835780973487754 0.8936411550868992 0.07608123829879393
C -4.469719442223654 -0.03658007693298629 0.36463041585934025
C -5.277550408453816 -1.0346323498947618 0.6172591274243826
H 6.791667609132953 -0.5775941478563059 1.1417314268279208
H 6.790100783236523 -1.2323058440541599 -0.6114093223776503
H 2.254230565284948 1.262932950464741 0.5877379394296507
H 1.8268508339440086 -1.7514636989013357 0.14581381658609846
H -0.2825699210345915 -1.2863243285629318 -0.8427832869128636
H -0.27106525728582564 0.8744972382168366 -2.1027873870059492
H 0.8378995783931029 1.6157875669282915 -0.8368874597075736
H -1.040724746447836 1.270310032358275 0.8203073336024643
H -2.5688550286893737 0.4718626570472163 -1.723769903611273
H -2.130265470827894 -0.5828091394841448 -0.3438748071183871
H -3.863902931865586 1.8607965356269798 0.4020822997122777
H -5.993746429649634 -1.221970938364299 -0.1522573098167265
H -5.120366061488248 -1.5240103362087014 1.539359197954919
