24

C 4.643619114537391 0.9661093439138655 0.48459018506924373
C 3.510145243767397 0.8996517090878948 -0.18757285378600463
C 2.3722413542157543 0.7690102393789292 -0.7973714325718421
C 1.496159838024748 -0.27225193176836304 -0.3115928469089079
C 1.8503493215394582 -1.4953135751706645 -0.1637710016062845
C 0.9641004770693149 -2.441312038207862 -0.04477959744281514
C -0.4122944058140497 -2.22519075109981 0.4118569796625055
C -0.7779050952079241 -0.799584001273651 0.36866178178995546
C -2.1667404616199053 -0.36917949590045496 0.7081109087365143
C -2.1680242736807833 1.0829668582917658 0.956879386328574
C -2.931467495617478 1.6558005672802736 0.04354313686453642
C -3.4725767615254517 0.6457539423535141 -0.8480516390979266
C -3.0328732153756297 -0.5356487976986286 -0.4688856179982599
C 0.12870773929274135 0.10542465842045366 0.027283782250079505
H 5.4225759252129935 0.36396794330466153 0.09458193496853262
H 4.620720403023321 1.6119895863129021 1.3234848578153364
H 2.20508564474344 1.4457944772623392 -1.5937251470396192
H 1.2524049103773538 -3.4724655605870782 -0.29945281542746416
H -1.0956452891723802 -2.7842339961375453 -0.2824846679594834
H -1.6395112514042507 1.6222704684110087 1.75056738379587
H -3.136545377445032 2.715881506188239 -0.04549735492522479
H -4.1440670846212475 0.8391093382138753 -1.7049238233005015
H -3.2965058842161574 -1.4748665586721492 -0.9803930062915134
H -0.19195337610368265 1.1463160680965498 0.010564887726315223
