21

C 4.575279427246058 0.38226952674672227 1.781806919763118
C 3.848035700733016 0.02870363227606696 0.734998171624624
C 3.0908002154032728 -0.23791890354167536 -0.3036274106812642
C 2.2505079202412324 0.8192963826655355 -0.7663162005409156
C 0.9833168869215844 0.5274029546821465 -0.9341606628956112
C -0.27507814749262244 0.16223005522814926 -0.9650569392761116
C -1.0285797858623784 0.3352632172861603 0.2691146592518281
C -2.285937133107711 -0.4943375158218015 0.33517248925740145
C -3.2349109466471364 -0.18678815132056054 -0.7440503503167224
C -4.441279203401643 0.24521939897866507 -0.46291567340531253
H 4.109771484439878 0.19741669397593808 2.711438813776201
H 5.513478227330029 0.7977003088069349 1.5339025990768271
H 3.202381765696927 -1.227143856186455 -0.6749488383644552
H 2.481140586807023 1.822622664085574 -1.0012768647339114
H -0.5778417745343499 -0.2168965411560022 -1.8996336797024715
H -0.45274316920599716 0.12427150646638747 1.1896456726255622
H -2.770516600037871 -0.2689176909134703 1.3036761323153763
H -2.0766741941671705 -1.5921709373486623 0.33845510345699925
H -2.989061114322846 -0.29977235782953515 -1.8067422842654537
H -4.74456610776114 0.3780842228982963 0.5847659410812956
H -5.177524038278406 0.48570763579088344 -1.2242475980470873
