20

C 4.671936839016807 0.07327604474008897 0.03308642745452726
C 3.3879096320772075 0.3580529112801732 -0.10160155169261005
C 2.113111994034261 0.5940870080211224 -0.2792718737602697
C 1.4598116342920227 -0.20537827983346768 -1.2561089047989629
C 0.4539744095800402 -0.9417955702688372 -0.8250941030884819
C -0.6023373475784173 -1.552883733996874 -0.3178754903152548
C -1.8402389657812457 -0.8106186483391431 -0.3410973593513584
C -2.153930220346206 -0.017936522228730795 0.8861793319716219
C -3.4840637712569893 0.6906433812964481 0.6756186495901227
H 4.878325604307845 -0.6709029694038529 0.7530275256399803
H 5.308169673351396 0.6305732528578502 -0.5995332969180907
H 1.7201106329449225 1.3657733893252297 0.3385619527632344
H 1.6354990904174047 -0.32081935615448987 -2.2932529264853643
H -0.37536100516589177 -2.518785744116626 0.03905831679815351
H -2.1390274937711236 -0.3478104060665975 -1.2755722965044658
H -2.2297635526298523 -0.5989742222657191 1.8003506177630921
H -1.3813672957777776 0.7728131774046227 0.9790177936706631
H -3.5735097701460403 1.5872743069914481 1.317032316640614
H -3.5649730429847137 1.060615039013288 -0.38185917857938095
H -4.284277044583332 -0.048459603610829995 0.8493340492022184
