10

C 2.0187499090437973 0.30571167090809953 -0.134373903828718
C 1.1227147157361976 -0.6401078922491277 -0.10969813607856638
C 0.0421099539793565 -1.3994870979387148 -0.005017583556228987
C -1.2651787848885916 -0.7021590424649671 -0.188845227930029
C -1.2739892253362297 0.3415495598223193 -1.2772828853246483
C -1.5476204337696613 0.6039025710004476 0.14653922255328702
H 2.396873622138724 0.7279662854142879 -1.0433974030246673
H 2.3827431786593265 0.6701383551474653 0.8007540947660836
H -2.0901222937218717 -1.4517286480878122 -0.3563811328841478
H -1.78628064184104 1.544214238448003 0.60884033102854
