21

C -3.668867020757495 -1.067938887560394 0.7901016469912711
C -3.1691150429042323 0.003693326300669662 0.2031692725325248
C -2.593827357964411 1.0115844488144194 -0.41242786361221995
C -1.3386238544996945 0.7290999238909585 -1.0940287678224552
C -0.11945627915346328 0.9758118939277682 -0.2310028808528476
C 1.131768230570545 0.6563303962893526 -1.021430962871772
C 1.2652491623958877 -0.7068035177243676 -1.5123133812397003
C 2.1250272093488443 -0.28176479616640704 -0.4319167256367156
C 3.082998789856001 -0.6325422414350442 0.3915102926094486
C 4.081048321685154 -0.6563858810991477 1.226997139271339
H -4.317363495594898 -1.6337020945835907 0.17761274496509818
H -3.347312926385318 -1.2047604969874743 1.7867251477710155
H -3.127014749320732 1.921410995262287 -0.33344673041711675
H -1.3041218889019024 -0.3064071977017268 -1.4764269624421738
H -1.2684510544749512 1.398865185287074 -1.9965394127488485
H -0.07697106293944045 1.9896778254425052 0.16798540819553504
H 1.5332849110533775 1.4963108976121056 -1.6126968499265193
H 1.65585116683412 -0.8550459137593678 -2.5457805484652916
H 0.5099889268596898 -1.4874014684951222 -1.2491771073923699
H 3.8637995465998936 -0.9518021683642627 2.230741257375584
H 5.082108467692775 -0.39823022895029253 0.9562494370984224
