17

C 3.230015724719411 0.35235865166336244 -0.7794350601219383
C 2.1794882559767506 0.4564035188333771 -0.011377938501294338
C 1.092534485696789 0.5015510514200697 0.7186856161858985
C 0.050498122783346214 -0.468436840352431 0.3864378437514604
C -0.5197328943315973 -0.3286822745457228 -0.9871946762434163
C -1.9515610994981212 0.1006249196793762 -0.8029076929776807
C -2.188977147506518 0.06765962051783256 0.6719975629553271
C -1.0948969817697132 -0.24352521479819225 1.3253027852748895
H 3.976833535823898 -0.3116743419531524 -0.4256064301686288
H 3.202219721332423 0.9426721658956885 -1.657162235820462
H 1.0969686005841024 1.2419847797904993 1.4701470210600043
H 0.41762854902620583 -1.4869829046329515 0.5850764058653127
H -0.5517851079884939 -1.3130116256804998 -1.5228440427074244
H -2.6774077848488207 -0.5974933010129816 -1.2819153366039315
H -2.099646324300924 1.1378549140375935 -1.1773797282480976
H -3.163924172715518 0.2824009785147812 1.0963331997075338
H -0.9982554829832089 -0.3337040973767341 2.3918427065925023
