19

C -2.2444189155464866 -1.92148322149764 -0.27768116205989746
C -1.7909707947473998 -0.6887482270798357 -0.10073139143346091
C -1.4211748516674856 0.5395873423614902 0.10810111233356089
C -2.372312040268596 1.4259286304715122 0.7766395096251658
C -0.10395256865208692 0.8322730039584215 -0.3647250798599792
C 0.93131315914393 0.0141712576706887 -0.27268612619928934
C 2.246542792517603 0.4278334735613786 -0.798490505425563
C 3.3689747490091477 -0.4341653186173742 -0.3521381747248965
H -2.023465179533963 -2.569742224664888 0.5250366830477811
H -2.7520360241985773 -2.05893897025295 -1.188580054360083
H -2.9830472892746895 0.9032864306023655 1.536754026422604
H -3.1059223741305693 1.7627984988835543 -0.012880960329656719
H -1.9182650017290175 2.3260410391296644 1.2352297265987522
H 0.030069455851783385 1.820696118431706 -0.8369001635917808
H 0.7736072868618198 -0.9446489624701233 0.19256380905627904
H 2.24239923071392 0.5328951865947874 -1.881496728104699
H 3.2615830148132594 -0.8243945347802129 0.6812655661299816
H 3.5302281812069287 -1.2839839017465589 -1.0664531706772415
H 4.330847169633676 0.14059437944589892 -0.36793154709213005
