24

C -4.8214813605105595 2.412866730127992 -1.0821738612495875
C -3.7277455826064836 1.7180750288830333 -0.9465592794369595
C -2.6029054936926688 1.075732208742348 -0.884824248861289
C -1.415770458629446 0.6148249256914948 -0.5581059169436492
C -1.3370010298119608 -0.42761534844995336 0.40690279647901245
C -2.027790666747704 -0.5997365495395223 1.6736926651035091
C -0.5038788103806109 -1.4025408851407417 0.12021039902382988
C 0.4365805084737815 -2.300276823647561 -0.13165709922799032
C 1.7236696090781092 -1.99657539157357 0.38174053009605985
C 2.6516686519939268 -1.4836927075577373 -0.42370856895533693
C 3.97122603845249 -1.1537898501694748 0.028502650838507605
C 4.313445789074597 0.10986720560794587 -0.06995887682426552
C 4.582358138698594 1.3957898214521978 -0.20058719568163724
H -5.145046494197431 3.0153524990357776 -0.2561194308867289
H -5.405262173314963 2.394776376409733 -2.0032486582781273
H -0.5801851797588164 1.0813661200724187 -1.065528405807501
H -2.9253481836166966 0.05847841136016049 1.7077666294593103
H -1.3500087075056655 -0.34463523483941866 2.5154447660454107
H -2.3876755758042916 -1.6314312223893073 1.7704029660878806
H 0.0573704451126547 -3.1070729083505872 -0.6844870497166199
H 2.429549408270795 -1.2929033327785533 -1.4850937589170436
H 4.722801847244057 -1.776330205089798 0.43447378656056246
H 4.326713460101099 1.9817665467121826 0.6414066376168667
H 5.014715820077049 1.6577045854307983 -1.1292428307722875
