24

C 4.7081314628135456 1.8168166467200588 1.180600730982729
C 4.2180498572943455 0.9226191338855707 0.3677721322757368
C 3.6593911553238865 -0.005603130247637241 -0.3713890941310815
C 2.646039768799169 -0.8051165280378296 0.23905475533298912
C 1.6130762615757739 -1.1602130590458721 -0.5072061288800438
C 0.46219842535798555 -1.21573515574677 -1.158715395255233
C -0.44748789559393237 -0.09044450057144962 -1.0772993565274018
C -0.03528615546924331 1.1074622800904694 -1.4221414534401695
C -1.810680025740325 -0.29174301973861455 -0.6148431123298076
C -2.2708857643496554 -1.4783422589099495 -0.2570679650354524
C -3.6257303010255546 -1.61216705980099 0.19062723664686754
C -4.045321170572121 -0.7131292671006646 1.0503187876763311
C -4.3827315448015804 0.23076430792759395 1.9099372325178838
H 5.547938707723436 1.496794749467531 1.7488357623687358
H 4.206570954724062 2.756249184116634 1.1757435759313446
H 4.033664054857982 -0.05523444483708623 -1.3580639977066413
H 2.6310892118591322 -1.1496032337321422 1.2469230555713573
H -0.6686322507943238 1.9830512836090535 -1.3820698085211838
H 0.9768564214775173 1.2602424884182293 -1.7660396763764938
H -2.507642680459403 0.5613225583741379 -0.550733211167231
H -1.5702917482847705 -2.304484225646141 -0.32721562425718315
H -4.3523426377103425 -2.334311840313085 -0.06788309081103149
H -4.197438029852868 -0.017571365651487203 2.920607655269716
H -4.788536077150936 1.0983764567706942 1.4643618156223897
