15

C 3.160030830719636 0.11592795980925531 0.3487156945579552
C 1.9751378165234752 -0.25785664654432006 0.7706331599237168
C 0.7824296753868003 -0.8188219344033607 0.8558320609157108
C -0.17489419576042994 -0.46099117400687784 -0.23015141865242486
C -1.4293394596366655 -1.205715239609409 -0.15024295283247607
C -2.393389925097298 -0.33210151795596415 0.054776888824484185
C -1.8267704805092098 1.0245873155795466 0.12002709744896845
C -0.5311707559182793 0.9692149777237529 -0.04439065110714746
H 3.8455868193831315 -0.5697580726779609 -0.11263758036399749
H 3.450482058315833 1.1367489190382283 0.465529704461157
H 0.32648706025857177 -0.5477326483445587 -1.2131511172539928
H -1.566916892262657 -2.2603342404191435 -0.23811834315950217
H -3.4535677642736817 -0.5080651297051415 0.16734493294880512
H -2.3730724291385505 1.9528123051382533 0.2792318860976268
H 0.20896764200930792 1.7620851263776847 -0.05644047037897952
