18

C -3.9993504425236157 -0.6033570667703051 -0.08996650503317462
C -2.7213044757268707 -0.4432711436460766 0.10934215512712023
C -1.5553786943281513 0.10464107457441543 0.34848893434855394
C -1.1556914663455558 1.3824522325263404 -0.16304537426027338
C 0.01547669668172743 1.8761223035354277 0.18100026382341547
C 0.89103811132213 1.1637598555593232 1.05131806756314
C 1.4286944638495922 0.07086731614589584 0.5404249463300396
C 2.0171260563833626 -0.9309679444982691 -0.0819670072106005
C 3.2476164313758944 -0.6187716146762848 -0.7912496007036761
H -4.752239506916812 -0.2728751440834352 0.5730794833428232
H -4.218710579234598 -1.099445914264244 -0.9911516914436483
H -0.9413531770389073 -0.4742733483935811 0.9482997032321174
H -1.7659877810315676 1.9940955905535989 -0.8349541775766034
H 1.1944274539474113 1.3511291435037593 2.04176956500962
H 1.4943669026617084 -1.8398493094308122 0.02685185806550383
H 3.3069310809430332 0.4260230467419145 -1.0848554675299253
H 3.37492452420612 -1.2615249883684831 -1.7077949475803922
H 4.139414401775223 -0.8247540890092715 -0.14419648908359442
