48

C -7.807395698366286 0.47297262501716875 0.04439269002050783
C -6.777469077052178 -0.3600301485396101 0.19559679208761077
C -6.018124140275789 -1.3663178789173862 0.4061488269448619
C -6.752566605880238 -2.5885688287153124 0.9039836124733058
C -4.628893494024378 -1.3270744486551016 0.1858433276471694
C -3.9228429889379495 -0.12954216658834733 -0.2777440469082346
C -4.37678465227079 1.0688468341777393 -0.5631296304431773
C -3.298585587689838 2.000841657073457 -1.005538396720168
C -3.223044200243334 3.237599977993039 -0.163270191289809
C -2.082442776345459 1.1775478434719968 -0.9482963819651847
C -0.7806269942565466 1.4146971020755221 -1.2186182533546157
C 0.09613752968869263 0.3039755497289289 -1.0240483196140084
C 1.3412762956441668 0.4773576807706836 -1.2637512335206156
C 2.6242246841741346 0.6844619815776998 -1.3805380171224433
C 3.297148549071115 1.1158997216266322 -0.21197118109656632
C 3.8175398114766734 0.1905722286468872 0.5470716960787072
C 4.390121545604457 -0.8071221366292928 1.1945696073871175
C 5.738512977070974 -1.153159259276884 0.7631251936799884
C 6.8630779372290895 -1.3032466253909512 1.7179472415109882
C 6.795094231704552 -0.0644256696559438 0.9139688247571206
C 7.653304007623974 0.1421520502271229 -0.2654807666234914
C 8.959900200293651 -0.016653987473526134 -0.1886468651187957
C -0.33908587414349495 -0.9743427069020892 -0.5781663045468886
C -1.6144484465019378 -1.1246820200631158 -0.33787726144937535
C -2.4601528889125177 -0.1325197750567518 -0.5018720597799062
H -8.23013263668807 0.4234852157305338 -0.9107731812401274
H -7.991154716227375 1.0231401306467494 0.9149663386388647
H -7.517154900129715 -2.813567140221419 0.15196647580563347
H -6.011047447346028 -3.4115279754207015 0.8802649181064857
H -7.115377081548027 -2.4688783517086486 1.922908472847116
H -4.0773316280883 -1.791167286728195 1.0720808374292712
H -4.389271204013273 -2.1233519908627367 -0.6199539793663464
H -5.387505331730691 1.46375270310826 -0.5229580706867226
H -2.1453059053055097 3.5115027327824713 -0.06242163019986193
H -3.7142946419846665 3.1154028324035243 0.8166673471128679
H -3.7093492245690998 4.058486825439409 -0.7299973053712935
H -0.5255494677947653 2.4009636170166018 -1.550194899600145
H 2.9631653882363875 0.4895551930442655 -2.3627165361714595
H 3.4586379968917496 2.1092035892770364 0.16764949657257994
H 3.7797936113730035 -1.2233961743150303 1.9473766005668052
H 5.78649385888114 -1.7878848887807197 -0.1482391787447532
H 6.640556177421779 -1.2281020174393715 2.800063318151267
H 7.676587546009387 -2.019827915659223 1.4822440473329073
H 6.471775951448045 0.8571716527454398 1.4547425587417724
H 7.146756562872029 0.431483311915986 -1.196343493070059
H 9.409563704294364 -0.29960177352134565 0.7409751784257167
H 9.63374702311125 0.12435211107047173 -1.0308747953088613
H 0.3525220202038758 -1.7804340010467197 -0.4452411805526284
