27

C 5.030336274646128 2.2141567413401972 1.541058638650801
C 3.7703833167428504 2.4279437087334625 1.2028245551876584
C 2.5101283245685235 2.5600231124030945 0.8972950951579393
C 1.5674879324472364 1.7993630162485017 1.7235832990992102
C 1.8939211989808016 0.40513331247562795 1.9818001747620657
C 0.6586805396114482 0.8315551364007271 1.2132515510605535
C -0.43053248092030616 0.4499735011007447 0.5574241443337415
C -1.0124542859485746 -0.014390220596307145 -0.5448718442005132
C -1.2409681456469759 -1.3933608821515218 -0.6768518362313553
C -1.4570084709511144 -2.5690327120411562 -0.7901134258488515
C -1.6998595011399007 -4.033964164656109 -0.9284031807718005
C -1.3789540645915452 0.9071237987844591 -1.5784079554964812
C -2.464909050663277 0.8155580287680926 -2.315353352179171
C -3.4731426927909155 -0.27916586264141946 -2.1683121069166362
H 5.396465609280281 2.902319993650787 2.2549444366409475
H 5.493520636282443 1.3964682044484902 1.0602951778425882
H 2.3099506664075973 3.2037991427821044 0.08070127208665871
H 2.7111450844821485 -0.05837992243853219 1.4243642983520546
H 1.6705163375651053 -0.08769941107654525 2.964017262797649
H -0.8726927573693474 -4.5352642070599805 -1.4570856824707683
H -1.8045260365813265 -4.494698033804868 0.07947990097153364
H -2.6038115385675145 -4.123705046355289 -1.5286824079180847
H -0.7277807754190966 1.754017711960839 -1.7864861252867354
H -2.6319707281394136 1.5957513268980865 -3.0779069959843834
H -3.1291683060388684 -1.2042129271488284 -2.6851697124913496
H -3.676505313904714 -0.5160891980412139 -1.1116324747080057
H -4.40825177234619 0.04677585201312809 -2.700572232624427
