20

C -5.348052740770132 0.6462925645782722 1.1149080389264676
C -4.23779471885582 -0.015250604033986996 1.3628693085104386
C -3.0679921885236925 -0.57974921333428 1.295075181692078
C -1.8585473684814628 -1.0073408196683604 1.27465091808419
C -0.6507270941290016 -1.368078825935977 0.9901905728978635
C -0.08538172580974548 -1.3703234485807954 -0.38666772922907994
C 1.2759665508522833 -0.7428951265545088 -0.3491036442249502
C 1.4925801006956154 0.3398969347038648 -1.0753534514302112
C 2.774258770344197 0.9729966205912014 -1.071561313701238
C 3.4376650737211185 0.9424528928132512 0.06248328874084722
C 4.022197934127305 0.8723390496829024 1.224667589875744
H -5.740893334258048 1.2522480802939382 1.896143916828836
H -5.837130224925456 0.5749618964653841 0.15806398669045404
H -0.7287689403592983 -0.839540535321804 -1.1035928911998498
H 0.03526937593290147 -2.4587507178674133 -0.6562457287127008
H 2.063195499208635 -1.156253588717429 0.25075422454575097
H 0.7113279952416045 0.784871427186505 -1.696614501191922
H 3.2826853935137854 1.4709980674083882 -1.8501401342078976
H 3.8185459829849338 1.6722016884894686 1.8926466731624607
H 4.641595659492191 0.00892365780060346 1.36738083195083
