25

C -4.471791184774689 -0.7143433167890779 -1.2295984168036656
C -3.820313581710384 -0.4360057496308506 -0.11773215448444047
C -3.1010778910985293 -0.11645601876983304 0.9379810232678586
C -1.887861049793502 0.5936363858661918 0.6883651356696867
C -1.8972075176378325 1.963584462301044 0.6598671821071245
C -0.7464685277599685 2.6858082391838045 0.422023822788999
C 0.4129274513067012 1.973310914860893 0.21424276606904136
C 0.46698720191909815 0.6008848470925169 0.234172819747641
C 1.7166524867562705 -0.14029604216107425 0.009622593986543615
C 2.879819909781571 0.4256708606489126 -0.2271819527800628
C 3.9042730783984543 -0.5865428521994198 -0.40230712593123064
C 3.3564364068092534 -1.774089596618569 -0.27039315188019275
C 1.9225053394316345 -1.5961274145770439 0.002157508057817796
C -0.6943766991752065 -0.09619877090015673 0.47350834081939
H -4.2123842998048655 -1.640760094382147 -1.6667863838133399
H -5.1617643429684055 0.030357987644404803 -1.526761176192475
H -3.5243227348604576 -0.43389568842529336 1.8525643091226942
H -0.7224698316702431 3.750489340593568 0.39385185003352446
H 1.3197053157742642 2.5288740910621206 0.027120587700358387
H 3.051939748990404 1.5109819200899595 -0.28438881674023125
H 4.97015620840348 -0.4475715801152735 -0.6109015107731557
H 3.8898083918487028 -2.7458395215409612 -0.3517283591047935
H 1.7373941535086856 -2.0450497130833605 1.0268882256350922
H 1.2788473018578284 -2.1122611323427978 -0.7468192734152813
H -0.6674153335325658 -1.1781615578076228 0.4922321569131217
