31

C 6.29922117387815 -1.4137378340244087 0.3916601522072643
C 5.124789971060614 -1.138647589818768 -0.14731605664395164
C 3.9208746210303116 -0.9084114375884756 -0.615958272565268
C 2.833174574887672 -1.4384548903257726 0.1462995655586355
C 1.8539456246357418 -0.6036717542684691 0.39115332724786683
C 0.8660287960135257 0.2684534832120239 0.5189666002161601
C -0.09483426369994065 0.2684277308475077 -0.5264808929354186
C -0.793603276548794 -0.8507262878954417 -0.6133821830423049
C -1.554200198810317 -1.913383999232138 -0.6498813254377396
C -2.735879328748767 -1.844278106726435 0.14821334277981815
C -3.7671794885678134 -1.0533169323258649 0.3384828078932805
C -4.288989151227931 -1.968116574624735 1.345895696315354
C -3.272943968024699 -2.764423277934913 1.170251170363348
C -0.4327271264770533 1.2543787398089126 -1.4839299350881225
C -0.5638196196990439 2.4760033096642466 -1.0251221119157752
C -0.7794027870053383 3.650700609978297 -0.4763133687778226
C -2.1351365040893078 3.9003187620552224 -0.003751440087234836
H 6.64202614577002 -0.6867530552076201 1.077200757251317
H 6.725733884081193 -2.3216059160241 0.059688517571583076
H 3.905560785019739 -0.3504008045683762 -1.5136328240495842
H 2.6881996901227523 -2.405545969255177 0.5478907553667915
H 0.9432936819926158 0.8483317138974336 1.4004629224106633
H -1.1819537795632613 -2.6754822538256007 -1.2691926750455218
H -4.063229681679707 -0.10900511292126298 -0.10386889254468623
H -5.160877733671671 -2.010288224958562 1.9992977280835986
H -2.9789282886054878 -3.7105617084622153 1.615330357932261
H -0.6033915881951198 1.178548901987477 -2.527685756837108
H 0.07713489437926493 4.265163426683344 -0.45117455503343634
H -2.208740396761996 5.003293799697358 0.22994491487969732
H -2.836999951286591 3.7487324632649655 -0.8556360340034425
H -2.427146710208939 3.304458788891665 0.8825877079296516
