27

C 6.4146219619632525 -0.4527386586196293 -0.00743638660431356
C 5.284585509702623 -0.1421812742457829 0.588678196112215
C 4.149285872376655 0.2361505219423001 1.1177726528209349
C 3.4906247280674454 1.3431841147667687 0.5087714743851761
C 2.3536298727019442 1.065426583154058 -0.09563982284411288
C 1.1761011375025177 0.721962501669889 -0.5841091799557204
C 0.07722642117846636 0.788042754341761 0.32815745956447606
C -0.814214127404544 -0.17604944747172457 0.4133523476386334
C -0.6971179758328576 -1.3784623908103533 -0.4530456654096699
C -1.9722706469484816 -2.081933350102036 -0.45930384180962985
C -3.0102242209844627 -1.3700480584508863 -0.8715104270850168
C -3.9884652365885267 -0.5729731186359889 -1.1945392694631247
C -4.602592692720131 0.17268760543732725 -0.13975714474231563
C -5.592631975080846 0.9863047599792751 -0.43170227181259385
H 6.3204944552073625 -1.1580776900941216 -0.7909121466625176
H 7.266510664927101 0.0464121285230864 0.3773944200269461
H 3.8519009742985357 -0.3451629935528306 1.958560009848612
H 3.7538908018608024 2.364076111942586 0.4547841383857197
H 1.2148730285670408 0.4405209424494465 -1.5994566207042875
H -0.034590032417416046 1.647447540016785 0.9696657917493928
H -1.6281168596936166 -0.08677370392917053 1.1150043382649435
H -0.2945113909785708 -1.142838604637215 -1.4573125874500554
H -2.223513682034124 -3.0668119293427405 -0.18993442958953255
H -4.2145219212348275 -0.5732339128018195 -2.225275250761543
H -4.278813934723784 0.08818964768089606 0.8881831924793214
H -5.940929219247444 1.0965111505655956 -1.4371978511638608
H -6.061231512465543 1.5503687702242903 0.3478905724351141
