22

C -4.242667923398272 -0.42049705188723496 -0.8801181496656251
C -3.3414823240334326 0.32345897679214003 -0.282391887312063
C -2.3783013432480065 0.9972087538090528 0.3013107827286476
C -1.0828997124356654 0.3789842886081415 0.31207124482159176
C -0.9668821578877727 -1.0913389187091402 0.43479986675152077
C -0.009181402668775712 1.1434513647376814 0.21117957080327754
C 0.6104551602486431 2.501390584161255 0.07412066567471157
C 1.469076467773713 1.264538692529991 0.15231410639635032
C 2.674077031447341 0.7365527973698105 0.15817999604754004
C 2.8106809130798522 -0.7030650100668885 0.2774053072917336
C 3.9998365290175184 -1.3018065471545717 0.2898791162794599
H -4.7555725781170715 -1.09518358573628 -0.24716453940266436
H -4.335800686718118 -0.24477421220766898 -1.925089605465166
H -2.681860179684417 1.929131609595322 0.6985382608630737
H -0.47771542391326827 -1.4642853615729632 -0.49200562182763646
H -1.9582862557090972 -1.5469902560157178 0.5711261446912874
H -0.3513612856466053 -1.3333884376490692 1.316790086620523
H 0.5963004616006179 2.981557019505076 -0.9258563266269451
H 3.5437943642841336 1.3568941697005852 0.0763586532414522
H 1.918851490522348 -1.334580499950538 0.36090167060245865
H 4.89508866268046 -0.7143021236784783 0.2100529600798854
H 4.063850192806121 -2.3629562521802914 0.37896359687929093
