13

C 2.9795249910927275 0.4217623123345539 -1.7323151105711387
C 2.242767862181532 -0.31692201757511296 -0.962172066601648
C 1.4256414607854027 -0.9471738670657094 -0.17459051861003233
C 0.5801375901743928 -1.3545392536144267 0.7270320011837504
C -0.6513807035540997 -0.6073434331625003 1.0245782357563729
C -1.6091557184563907 -0.0032287988775748667 1.2549367653730725
C -2.8592475282601137 0.784209089630611 1.5287868759567036
H 3.4540041751773605 -0.0678125150866669 -2.5667626519351856
H 3.1616602517728674 1.4772898409887736 -1.6148103788794128
H 0.7428287593538611 -2.2535016085514643 1.2891686868610952
H -2.856250243470511 1.0911167163117992 2.5828075332406697
H -3.6969514848805614 0.11337207215453858 1.2590020284633143
H -2.9135794117312406 1.662771462406334 0.8481068300487659
