19

C -2.540974438685114 -0.4491447638245529 3.4375791952460237
C -1.5365858970886275 -0.15583339024652332 2.663534726162654
C -0.44917186838174883 -0.017400159803025457 1.9781176967954555
C 0.7390206261365752 -0.024568122909231552 1.4456987542196884
C 0.8540062856222087 0.21241199565701738 0.01107610391564827
C 1.1789972983940586 1.4207740788675394 -0.40468429362905495
C 1.0868649565588386 2.599746009430574 -0.9122065256880112
C 1.1884657310909723 3.8685488223620594 -1.1867239248122226
C 0.6209510975274126 -0.8349546343853674 -0.8998654504341409
C 0.39131163293192417 -1.7663157732210377 -1.711573143605172
C 0.14912257306669016 -2.852022823729304 -2.6564485795139685
H -3.531319604435328 -0.5656231161675617 3.0341227844855125
H -2.439049303131916 -0.5899498941374565 4.513271725622955
H 1.646845840360735 -0.19448088973347608 1.999289321435112
H 1.2859149497233338 4.628295356574353 -0.42698913629309104
H 1.1762107921781122 4.198415316924394 -2.2154345963326527
H -0.49315194640956955 -2.495680411544239 -3.498003382034643
H -0.42376422660557905 -3.6924441452952035 -2.163541550256197
H 1.0963055011556482 -3.289773454787004 -3.007219725280738
