14

C -0.9468223227746309 2.1165759763174914 0.5112901477904122
C -0.6943400861056324 0.9964417724140842 -0.13788980516300917
C -0.42752259242642326 -0.2552563746419057 -0.38394834198345634
C -1.17314469241417 -1.3737915519370902 0.1772692400358894
C 0.6861919678875585 -0.4151205645067881 -1.2683737484485174
C 1.9929582990956107 -0.29663556628862786 -0.4986769911116793
H -1.6817744397609873 2.660299823031966 0.034552055957826774
H -0.46563427360113074 2.420122899380083 1.4002897082202062
H -2.0509654807024464 -1.0431967627002068 0.7969462164523109
H -1.606873394942316 -1.9729157250281668 -0.6505243331370827
H -0.5474742342299019 -1.9790006335507533 0.8569282510696513
H 2.6464384642137864 0.47654706348314846 -0.9157368073657293
H 1.8155516145592019 -0.017934623015865302 0.5712202520981261
H 2.453411171201522 -1.3161357329573213 -0.49334584441495744
