22

C 5.242108114599934 0.7127628950960446 -0.35784724814576613
C 4.081722934733768 0.12024711573947891 -0.16984271384868851
C 2.8920691480791207 -0.41013685312170534 -0.02590131306106242
C 1.8027723343468933 0.31358806154676744 -0.6237460893868084
C 0.7259837964995971 -0.3700881924004945 -0.959257287570547
C -0.20806275923917397 -1.2531195111302287 -1.1912401367925773
C -1.125111012511023 -1.5736261033262096 -0.07821021909116178
C -1.9919453141289574 -0.36712380131071215 0.1302884627707057
C -2.056649922692807 0.3247399330913511 1.2564771657942202
C -3.003945920060928 1.427944884181871 1.0870251344120803
C -3.490760107089867 1.3810978931635725 -0.13277671591598314
C -2.892626834238963 0.2366718018878459 -0.8522812998725451
H 5.507111018921126 1.4022567549709934 0.395400219997453
H 5.747183405140314 0.41683229861386917 -1.2368650821673646
H 2.8741957591371468 -1.3113488008755743 0.515172180429012
H -0.24547931043140264 -1.688222099668012 -2.170964246308084
H -1.80937812961857 -2.371812759021072 -0.4355202596919997
H -0.6223261765685779 -1.8827860077748346 0.8380173464220018
H -1.495923773496971 0.11367738888553765 2.1723924706852182
H -3.268858200145024 2.1688758680680786 1.8376470637980622
H -4.220124306581308 2.0949590953230235 -0.5133956381131174
H -2.441954744654096 0.5146101380604471 -1.8016082221957745
