20

C 5.893983201942184 -1.0035860570736328 1.816761547630128
C 4.6679739983786375 -0.7898015158411037 1.3991473924505369
C 3.517275665580801 -0.7054571767324318 0.8067868471504765
C 2.4052242160858612 -0.6041015243867776 0.16776170323336054
C 1.24620328471425 -0.5037210605462241 -0.39320712595399304
C 0.1994157522148285 -0.19612502765641002 -1.1016247017350902
C -0.5911755151495459 1.0050830515477418 -0.738064417813961
C -1.9030035824204843 0.6219806792175672 -0.0794391416508391
C -2.7512110163235155 -0.1955055148093591 -0.9412952052767461
C -3.9662596688715333 -0.43020222701231664 -0.5059087084608476
C -5.169976667464409 -0.6171128951251572 0.007362164841174698
H 6.353123078660187 -1.9818326850830297 1.7273828295880627
H 6.412573392250601 -0.1580896455704869 2.24951282530408
H -0.13204631399472716 -0.7761542569739717 -1.9542092399375608
H -0.8602685886467332 1.5624631327591803 -1.6690260711310396
H 0.012325479900449875 1.673177506071244 -0.11796844938497172
H -1.6757003226765297 0.0639786947564019 0.8536732000459796
H -2.5337482683365087 -0.6349378957535181 -1.8778776175745515
H -5.8757257887755685 0.11686969964671198 -0.27043962484327533
H -5.248982337068226 -1.4728616084019535 0.6206717935190236
