19

C 3.292513740084454 -0.3051702090054513 0.8910390627323461
C 2.1964318172729027 -0.048389417829308924 0.2344889275374404
C 1.0688001149256185 0.17541220288172082 -0.3830034890221972
C -0.09188532992906603 0.41749698892883214 0.5003951899641544
C -0.28111882773687075 1.8614427445536763 0.6208937306232843
C -1.428742327214032 2.1594219186591954 0.05600143746145866
C -2.061653209411149 0.9597563869313316 -0.464464280876043
C -1.2823636832092646 -0.0712847817401828 -0.20780946881812615
C -1.5598219115607077 -1.4802136802738866 -0.5712235986586666
C -0.6893814605326887 -2.4099863026376367 -0.25056746574940575
H 3.879330984370753 0.5561160666050141 1.121019748993
H 3.475408787627989 -1.3306350614007867 1.1215203171735053
H 1.1004673410957466 0.16090076875774573 -1.4287378779840783
H 0.38265927832870045 2.605915282947324 1.0880591304278728
H -1.8426673203655952 3.1704969987805574 -0.0093407054085753
H -3.028944748549867 0.8896649977418688 -0.989790338430596
H -2.4635937769685032 -1.6953187226082629 -1.0849666754262879
H 0.2263769277642093 -2.1782955879493855 0.2720905643610238
H -0.8918163959926071 -3.437330593342481 -0.5156042089000813
