15

C 3.4126553471745895 -0.1874328337949619 0.1030888559911271
C 2.1661647972663802 0.1557932497734533 0.2543212042517748
C 0.8816751630042782 0.4185078443465085 0.3216505346346237
C 0.02258970384980829 -0.17254749679031592 -0.6909058922153498
C -1.388110370905623 -0.13410836806852813 -0.19096342352478005
C -2.5283107432689778 -0.8035900983676406 0.1599798038511704
C -2.5744994390957827 0.6434741560286024 0.2860114580415434
H 3.9857348650727245 0.4684701350217188 -0.5162417897477017
H 3.7143886248323588 -1.0782462128228805 0.6106606197675852
H 0.6303950247010158 1.0546909638716195 1.1414325410332933
H 0.27148091206844066 -1.2400366952556705 -0.9273199316747713
H 0.04667052276965253 0.353341103763666 -1.6713415751588292
H -3.0347140618019095 -1.766835102956515 0.2653364043811173
H -2.4628240266154497 1.0581741832236515 1.3058016552812797
H -3.143296319051674 1.2303451720272316 -0.4515104649119816
