35

C -3.8616831980340005 3.255281681458365 -1.1319931108575383
C -3.414453561426603 2.0130581501274945 -1.1523978388491007
C -2.9509082474193384 0.7829841710678976 -1.069048798517345
C -2.4121563645425197 0.3773387339590686 0.218894676271597
C -3.2156252558690346 0.7704488137785206 1.3843552134648747
C -4.519448074484025 0.554166067149642 1.5005396169819045
C -1.9337356765460338 -1.0193204158637268 0.2603092707137369
C -0.7051541844752328 -1.2639222952651574 0.668880960551017
C -0.24022847689021956 -2.6817516379476936 0.7035803911565459
C 0.15574549520296835 -0.13153333442914106 1.0737845628398919
C 1.5349450687115418 -0.23101092888682928 0.5365191398868059
C 2.557648374537108 -0.7972541772608348 1.141623935575913
C 3.7359643258725184 -0.6763952289786858 0.2629477116084734
C 3.2464412501590836 0.036329316609797595 -0.9271107481390009
C 4.034159860969049 0.411689495954974 -2.1134551844559075
C 5.307378318976207 0.11163147953499492 -2.186736991900482
C 1.9650658536226857 0.28700072217677397 -0.7501774413432115
H -3.1357819673130582 3.976207967995239 -1.394993088156447
H -4.876715131745536 3.3490096396266007 -0.8559114384726192
H -3.0332957174914967 0.2382732962005182 -1.971950157349455
H -2.718161665462288 1.2695674228962552 2.206041126186644
H -4.994600404054122 0.047018956336208964 0.6527719435547231
H -5.086490817637725 0.8491527259385949 2.3595288197010587
H -2.5570529616443616 -1.8570667087104675 -0.0339871707712354
H 0.5456087309422116 -2.8594542743872924 1.4391368102137394
H -1.0873294793362112 -3.386201097979419 0.9411647337657019
H 0.1120151560952663 -2.9499725665085426 -0.3052316869954312
H -0.27088958747325276 0.815587556632887 0.6862205195792043
H 2.5317549429067565 -1.2825580112722559 2.1445915102168565
H 4.5387627940653 -0.068426246760523 0.7433922374838385
H 4.17166484561243 -1.6700948578519548 0.016969034430792552
H 3.572616119012474 0.937101901015738 -2.9337934279413567
H 5.779507078046885 -0.412253959948436 -1.3750485238715662
H 5.870907427566872 0.39036426930753565 -3.055895061874742
H 1.353525129663238 0.815003374211539 -1.4983042942460538
