17

C -2.012958502100704 1.4512549488161326 1.2941496505573038
C -1.4476773222322434 0.6256965039280891 0.42639049923174427
C -0.942640778081288 -0.18932501682659394 -0.46708172758303473
C -1.6407317562362997 -1.4425773649754097 -0.656422085875332
C 0.2511826035154753 0.3071796246123915 -1.1288199427762902
C 1.5001888888987769 0.037275138062145295 -0.38047190426179683
C 2.2323181734919055 -0.7952898463775864 0.3093074872349291
C 2.806837790017072 0.5562801441903736 0.10399639669703813
H -1.6424527137512401 1.3071627714547946 2.267238520477486
H -2.7233883720484355 2.101046037764585 0.8787383422310063
H -2.7279562054199613 -1.4112201019584527 -0.5196406248135969
H -1.4447939134233683 -1.842211564967676 -1.6944020219700793
H -1.1803368585931386 -2.212048668703092 0.029866630893212648
H 0.17835128174096335 1.3514344800068416 -1.4680741020390193
H 2.3890612890167593 -1.7729298045874706 0.7546668117010712
H 2.752824673151309 1.3155980826430516 0.8887573341597049
H 3.6521717220546113 0.6126746369177724 -0.6381992638643308
