20

C 3.2334664118063117 0.4802654918577968 0.41364307922290217
C 2.230910255828886 -0.26196055074122887 0.007785978339653976
C 1.18716072217434 -0.9281886986643547 -0.4211250433192728
C 0.09536440664954798 -0.13527311111733178 -0.9820894356626024
C -1.0556532050629555 -0.07700795275367056 -0.06055413280641923
C -1.9669518738805192 -1.2011245108172877 0.09310208327683629
C -1.753146962601315 -2.2890191018153714 -0.6081475211902673
C -1.2345644804476874 1.0495328204024512 0.6326393722466308
C -0.3395816168536033 2.2103817222244926 0.5096841525866354
H 3.170048596648236 0.7951387737907788 1.4198359066806459
H 3.970072326873659 0.6643383858124406 -0.3215118435424599
H 1.261332850159171 -1.9764151703791077 -0.30806491683250264
H -0.20900321998277469 -0.4513539657746489 -2.003665087990194
H -2.806933244876107 -1.1364234280903187 0.7765202179719566
H -0.9210643196150864 -2.35001450642575 -1.2836022328224703
H -2.412219338795463 -3.1236019703684774 -0.5076519860043178
H -2.0599085709714573 1.1064831357384375 1.3008892664796836
H -0.045806360323536716 2.3167299996461814 -0.566356535555559
H 0.5506082860148934 2.147437042362645 1.1674736181856877
H -0.8941306627446723 3.1600755951122186 0.7411950607354346
