32

C 4.071844837325502 -2.858373025425229 -0.28541429225694565
C 4.062686767343169 -1.5853237553348167 0.07331480945024872
C 4.040760659813148 -0.3562344584061652 0.500976659730286
C 5.068283535269785 0.16269214431383106 0.947001539674992
C 6.164816392295235 0.7408497935456403 1.4291819774677315
C 7.633157366883836 1.5200546092826768 2.0650005955502415
C 7.819427025185975 0.8227899769189068 3.070311419433735
C 2.8482693578129323 0.33479613611759673 0.37316187063899237
C 1.4973474527444108 1.0937114561728936 0.23853848722695373
C 0.36795004855440727 1.7301409199284405 0.14853545832603202
C -0.42145122512775984 0.9768915576357637 -0.8552452116926272
C -1.0942275299469406 -0.22872306098660838 -0.4674233925918127
C -2.319791305411723 -0.3045885849563515 -1.3057856573683924
C -3.4132728165346595 0.4789475515810126 -0.8115769040048043
C -4.794580830661298 0.22658742021845144 -0.944607502877948
C -5.876847457491677 -0.13035677328726153 -1.0489890379594697
C -7.077403222700381 -0.9904887322433 -1.1695537435431842
C -8.15422601407172 -0.4025190899261549 -1.251695768177675
H 4.03195111045341 -3.5737035917651565 0.585360188944899
H 4.050663433308363 -3.047875971290988 -1.3608438462385373
H 7.780399390254331 2.2452141932166403 1.4099936576705752
H 8.46344190309862 0.6536890313577994 3.9846040701146883
H 7.048979187050804 -0.044219826594036095 3.1191068271282756
H -0.17954142532034217 2.488058954499185 0.504202207765875
H -2.6177091454682198 -1.4029957947500822 -1.5194339056891168
H -1.9369940479046042 0.09438322387385674 -2.4217875124231316
H -3.350312221711329 1.5997793220252 -1.3376266697828372
H -3.1923061026244772 0.80833837237809 0.2784941778598902
H -6.515640898044819 0.9083942851260969 -0.45858243857664993
H -6.891094160543119 -2.106067076772335 -0.9878269148556739
H -7.902348644219717 0.888200064869336 -1.178253441427846
H -9.212231419634099 -0.3599073744477467 -1.3231377075231963
