29

C 3.722823716895536 2.375563013714167 0.48603756824674604
C 2.8265906552507345 1.4246426497393614 0.34826754190320713
C 2.221789627523488 0.28388685543810027 0.32659300196674723
C 2.1415644405830805 -0.7957574740701959 1.294077707266245
C 1.9819636638591693 -1.9814645127448964 0.39761506301572763
C 1.5845983785307984 -1.605344224652233 -0.8106685275999849
C 1.4437024866789712 -0.12056705131819193 -0.8231532018302593
C 0.027063864756766132 0.2799589691289868 -0.7909562991984236
C -0.427286533393131 1.483025313575317 -1.0381969175356511
C -1.961130787704093 1.4638374714553888 -0.8812220585677406
C -2.21693032092275 1.4244053314743628 0.620924373406992
C -2.280045086090562 0.2187247326133468 -0.26288060916796774
C -3.40527861623154 -0.6568360975435358 -0.08879631392095765
C -2.966782121145068 -1.8969896620135875 -0.23315255471457294
C -1.5320172981044058 -1.8747949845193272 -0.5305647455482186
C -1.1022843425560112 -0.6283362796768256 -0.5780035655745652
H 4.721575740771345 2.3148164871172696 0.17034845370814508
H 3.340883343677662 3.2297338737481605 0.9572839540273661
H 3.080708356137117 -0.8743889073462016 1.895052111603913
H 1.2846391291731203 -0.6947344508299301 1.9924444895518896
H 2.1628415640474583 -3.0054280761803396 0.6853085238451461
H 1.3737521920682965 -2.204006812409517 -1.6974899355830333
H 0.07954659105827346 2.3649084443737736 -1.3028466738950162
H -2.5450373283794256 2.0996190680620677 -1.540547307098657
H -3.191460315148059 1.76834895788049 0.9947465377664333
H -1.4006472665164114 1.554884154890635 1.3403664568377145
H -4.428186403570844 -0.40887184968145496 0.11993416599849865
H -3.591193441500927 -2.7818094611934696 -0.14124867751060702
H -0.9457638897491573 -2.7570254790317907 -0.6818407078856241
