26

C 6.034222825335546 -0.22045794788268763 1.2081675370431137
C 5.219615473971752 0.29179867543841187 0.31413784100205505
C 4.346911819595458 0.8225888513967842 -0.4936051334703059
C 3.159843658098474 1.3592909861909854 0.07726407888880898
C 2.1414390170605646 0.5336462338101841 0.18235971714282637
C 1.153571667934112 -0.3250614485417913 0.15467699646574293
C 0.3483002833156719 -0.33989870029023256 -1.0664775127620474
C -0.7920087641749914 0.5564540952927818 -1.0795790438853599
C -1.6613849952852389 0.40719214695686085 -0.09570013201056629
C -2.5119117296899622 0.09996000297749694 0.8622621102881747
C -3.4903675555319364 -0.8882586354257115 0.5380701874675601
C -4.596436014733996 -0.5553886979802686 -0.08060881390303971
C -4.820915118575036 0.8619754721540981 -0.4409595664013182
H 6.740275281672638 0.4609892827440959 1.6048855071083856
H 5.87847597722974 -1.2445113629926596 1.4153566256421635
H 4.639818636696944 0.7890176783905386 -1.5252357689610385
H 2.947092802876702 2.3349423718797473 0.4410731647677769
H 1.0669800590476246 -0.904878275638217 1.0313205417733728
H 0.9159322496449518 -0.4154658960959608 -2.0011003228022726
H -1.0657323777348333 1.3254801873378774 -1.7459062660059184
H -2.3421057852901903 0.6405237580595597 1.7518883553930853
H -3.3477036178574258 -1.942031779138301 0.7937007796392831
H -5.339021881071205 -1.2896095748246763 -0.3293796957818982
H -4.911695941089942 1.0234504710750374 -1.5329360197403359
H -3.9897177297985653 1.512176334286548 -0.09935697965288798
H -5.723478241646746 1.1946224372188572 0.11568181275460335
