25

C 4.091743827247025 1.6855079222587066 -1.0463368681688565
C 3.3160961416838797 0.6337925399944533 -1.2256870536950741
C 2.499720898868343 -0.38848438420137293 -1.3337003185767233
C 1.47729354081206 -0.48592659439027897 -0.32439277603967875
C 0.24006873704581733 -0.1523507878908531 -0.5423041858598902
C -0.8132175643744559 -0.23701686776212516 0.44556525016030096
C -2.0435056847550483 0.12687755004496082 0.14130755678739804
C -2.3558929055638558 0.6294156441764993 -1.2281818351937592
C -3.5329033114614035 1.5513124683810524 -1.17158892508354
C -0.553302233314495 -0.730335259055415 1.829991568530079
C -0.042582757810391295 -2.1499899715956063 1.8109991458277495
H 4.938945111238395 1.5035422807199035 -0.43948446771047717
H 3.7587031156910746 2.5618400177972007 -1.532534394785177
H 2.696294735557654 -1.0181281446792367 -2.1551429348888598
H 1.7799948507777539 -0.8489838015217505 0.639170573232348
H -0.014986256117842418 0.21520175933259378 -1.5382623220033358
H -2.8265236528456708 0.06739956493247318 0.8647653648957131
H -4.452565274273693 0.9119386201648534 -1.1978364885788522
H -3.5695667156220985 2.2254452610066635 -2.0491058757601937
H -3.519944564381562 2.1508303346488655 -0.24026276633342133
H 0.19087553407124866 -0.04362036501827382 2.311481015106265
H -1.4663907654522925 -0.6895564193734518 2.4520936364864876
H -0.7990953492033739 -2.802498532549218 2.3432878309527765
H 0.8924086405705829 -2.1746283280309493 2.4137234075632765
H 0.10833190161255836 -2.541584507389218 0.7724358631351118
