31

C 6.279895542001768 0.7110868186640344 -0.096192891029667
C 5.0371880612849145 0.3083405183530666 0.06536028023175136
C 3.8373241834778034 -0.13002166468388066 0.17640471683748113
C 2.7011407130009424 -0.6083386360456404 0.625090204440219
C 1.4941308587469264 0.263769597471796 0.5996676576997386
C 0.30341870032707124 -0.5995429736627325 0.8673391082943656
C 0.16609122796296355 -1.6626861808481432 -0.1578659871106883
C -0.9061198695385193 -1.4757545194213928 -0.9091875659807344
C -1.2992552323350353 -2.407723043762378 -2.039581270770467
C -1.6019378813175862 -0.26509951979198504 -0.4654356260486671
C -3.049930855285441 -0.41091385239238676 -0.2751050075249653
C -3.6517720125168 0.425845069599978 0.5767401015581144
C -2.9173468623744947 1.4798194455636944 1.3241033416393095
C -2.6292321473283797 2.682004521362142 0.42294548676503696
C -1.5697317208966846 0.9217124574865022 1.691469044662509
C -0.9800640704381854 0.10785575387788578 0.832252608051564
H 6.941253709986554 0.9165516445508415 0.7262396667913117
H 6.621023210724286 0.8310025421418378 -1.0992423485903782
H 2.6618634078090153 -1.6380163753631543 1.0091355188422177
H 1.4033226973729218 0.828861763197119 -0.3544595329838799
H 1.5309100456413383 1.035346776598122 1.4217087985816124
H 0.8816642370375134 -2.509858490615119 -0.2737918182903547
H -1.8250607535935104 -3.2962886731026533 -1.6480647350093551
H -1.909568663864324 -1.8702010323710712 -2.794143437084761
H -0.3702247362168159 -2.7427144013146765 -2.543516051101902
H -3.6247684097930204 -1.1760807786775687 -0.8085950904411412
H -4.737441533649388 0.3108607910652934 0.7145710487164065
H -1.7754109440512829 3.2310787935422116 0.8383842577919937
H -3.5518911667274162 3.267502744942912 0.3313449876507664
H -2.305532152504275 2.2517328430380354 -0.5482389241980166
H -1.1539375829428382 1.2198680605974423 2.6469927551236423
