16

C -3.448798375024343 0.01537634775623325 0.6525822820195936
C -2.5575094373885863 0.5121136160376142 -0.19247995551811278
C -1.5855161881805098 0.5831545760312639 -1.0592543888233394
C -0.3925740452002405 -0.21861027086736542 -0.9974553395162342
C 0.5124962849519495 -0.012359999257574122 -0.03647671246724228
C 1.7495526217234885 -0.8038777364348206 0.07236927520449075
C 2.9954621065965745 -0.0012552456855669178 -0.2145179016549263
H -4.111134318513045 -0.767778509376387 0.38693609737736645
H -3.3773021715932052 0.5155596970417277 1.583413967485816
H -1.7772395983197762 1.2915138707886982 -1.8042632433157308
H -0.18233256366218886 -1.017777927408451 -1.7248272051532603
H 0.3438971411130668 0.7599047980077982 0.6942628863611984
H 1.82983472029026 -1.3278835953639834 1.0499436128843034
H 3.3409815250218333 -0.2565953801739908 -1.255155038451625
H 2.843893813092779 1.0771280557103773 -0.18889622904578524
H 3.8162884850919023 -0.3486122968055591 0.45291595451322925
