21

C -4.024659373037439 2.171101598319721 0.013450571927540149
C -3.796837847806185 0.8905810955112892 0.07862979475239133
C -3.4967304086823185 -0.3928821947444683 0.07970106401029864
C -2.4281245222089187 -0.7956549809312207 -0.7753066981059749
C -1.1788524056434833 -0.755323600957258 -0.3220656178753127
C -0.08623463658163186 -1.1620205896565547 -1.1816793719380858
C 1.1462023832382462 -1.1233619009232476 -0.7374119517851146
C 1.4197776554617352 -0.6642982763128492 0.641903660443038
C 2.828788420417308 -0.8385509174204944 0.9578642422466522
C 3.6175107446652386 0.18118743993337802 0.6936216135216032
C 4.330242157061813 1.2499997810508314 0.396898949269066
H -4.7362669878532255 2.4695653080391584 -0.7302089867200192
H -3.4789792075571464 2.768758159269317 0.7026772208777331
H -4.100452976826428 -0.9662425339226969 0.7278037412116443
H -0.9563280773374008 -0.42022753224639653 0.6900957096616543
H -0.2903091896309835 -1.4962676217681141 -2.1871635998908325
H 1.978511831341466 -1.4197973243118711 -1.355431025992073
H 0.7910688438734369 -1.2331153853198022 1.353363075974446
H 3.331231350406423 -1.6693580983749443 1.3740089567846974
H 4.41010431311463 1.9520986652176473 1.1831020784812558
H 4.7203379335843385 1.2538089095485627 -0.5859039080904161
