14

C -2.3704073384084072 -0.2372948218958149 1.26665818059113
C -2.261836533190403 0.3077565867999109 0.08825101977794661
C -1.7552865875912962 0.9235469477465887 -0.9675998773513741
C -0.4317730839756343 1.3645596152764883 -1.0697751957772828
C 0.39660395599265863 0.38414352865153345 -0.823991287455973
C 1.412216638519166 -0.4405162950902063 -0.8610431732500906
C 1.9482703708014306 -0.6386376159519528 0.4420739848919265
H -2.62015745195606 0.35087174055216613 2.1265931910838853
H -2.199563000146753 -1.2897797073038797 1.3495329697641543
H -0.18598446530949692 2.360154301326978 -1.3137777061398492
H 1.7873944969088238 -0.8992646238923626 -1.7363934017008604
H 2.7237832788761542 -1.4269062328180897 0.43977346098013
H 2.4013680925840615 0.24170120462814335 0.9408999224332327
H 1.155371626895516 -1.0003346280296381 1.146139105697978
