34

C 5.810581877429513 1.01199720986793 0.17096289154063787
C 4.9038689101409485 0.2529570529984455 -0.41010784695288405
C 3.9420198187360875 -0.49515019653951203 -0.8930150400587293
C 2.835071422879005 -0.7646062216326831 -0.055618863587847386
C 2.6947554025909275 -2.035925686453202 0.6736276585657147
C 1.8975879308522017 0.133359254987243 0.0770069255528931
C 0.7863928682784319 0.8510789923617753 -0.04962401676379363
C -0.14317214532139705 0.5000538462459592 -1.1347893865660195
C -0.9153913838894777 1.715010057272904 -1.5993695689632985
C -1.8552642851834245 2.4173979897575073 -1.0435022067981727
C -2.717929537973036 2.634208212561478 0.08591349599008034
C -3.9246005434366276 1.7169959906996324 0.2061112334315922
C -3.4924452025129895 0.2975701365322954 0.25457658058721006
C -3.939505544243474 -0.9270833143108964 0.6295481665994519
C -2.841320132280111 -1.6371748595429165 0.29570996397500454
C -1.85585449760203 -2.521584562543551 0.036162696838927554
C -0.7332738390616876 -1.9260175292496104 -0.5118269314790298
C -1.1095390926350286 -0.5088604663834928 -0.5824818392825872
C -2.300011553246123 -0.3251241112600297 -0.1294011481081131
H 5.66676094659116 2.049390211881135 0.03001468852594741
H 6.554798358535284 0.47682624603194695 0.6975738465731203
H 4.128911305914815 -0.8176577837242461 -1.9011391706564995
H 3.669620844103823 -2.3654244726754916 1.0907416977321807
H 1.8985427601754983 -2.0175252069303586 1.4493253234158177
H 2.429724063622838 -2.8167166242394455 -0.09359039577625755
H 0.33091530717659584 0.07470735925487537 -2.035387845380507
H -0.6121525189988608 2.0589705512679113 -2.602334875498533
H -3.157726687117196 3.6728985160481313 -3.1439174632744865e-05
H -2.223608343261446 2.63093857948041 1.079565717988238
H -4.652489902748424 1.8406586768036362 -0.6142618244079887
H -4.44940601347572 1.9284421621686707 1.1558373452384088
H -4.977573412523684 -1.0842354780305965 1.0759418563070835
H -1.8266602192386803 -3.629915809815132 0.1988052097126939
H 0.17837303772250696 -2.3904587228916263 -0.8077077713600971
