17

C 2.6022907814693768 -0.9344881608516638 0.48837177814878646
C 1.6572053591235454 -0.7829021674661141 -0.3969010377948931
C 0.665937356565344 -0.5815454875702911 -1.2287086924073347
C -0.519052719838504 0.08539746936560057 -0.6677909307858791
C -0.9827126811066105 -0.7151429483617272 0.4956675467950832
C -2.14763358355571 -1.3808761161462815 0.4542063686442
C -0.06817800520772326 1.4234286781589802 -0.15753571542531603
C -0.8441433312523785 2.474332056716422 -0.27808929125760823
H 2.5624935732856016 -1.847350010854768 1.036917854891339
H 3.3004036793367484 -0.1260744941302506 0.5575485002172819
H 0.8422051824683283 -0.9260744186737149 -2.207263518959224
H -0.3830996648903876 -0.7695964722442026 1.3918797729762105
H -2.760905370305024 -1.3326871407198049 -0.44596196456711784
H -2.5020256721607312 -1.9681742223795002 1.2893521555981202
H 0.9027734238118968 1.5491240590162922 0.3187689772994641
H -0.5042760931165067 3.42884512853014 0.09431387417802725
H -1.8212822346272128 2.4037842476108424 -0.7447756775511791
