21

C 4.098729393422781 -0.3940082199736724 2.4770554610296394
C 3.0259686059586164 -1.1334835960492287 2.237729523713649
C 1.9805538138735357 -1.8556867136867872 1.9381921142549505
C 1.839855636746359 -2.2430856732966395 0.5815082897694337
C 1.5477201407859065 -1.254100568945376 -0.24108368228118557
C 1.1645943477439311 -0.29221305514110596 -1.0297858750803073
C -0.22403188958001782 0.0012398523872117514 -1.0941006949658072
C -0.716239885513091 1.1486907167104756 -1.576397562796531
C -2.140555085049466 1.3656041740409908 -1.6068791656360153
C -3.354600739455691 1.5671482287327883 -1.61900721485523
C -4.785087371032661 1.7901116378202895 -1.6122726924830482
H 3.95469173641838 0.6417015685057686 2.3387956100701275
H 4.945639853361971 -0.9516088672093483 2.772891420130046
H 1.3439499624383928 -2.0719996698885055 2.7823123937765524
H 1.922795973361137 -3.182233393851849 0.10564937618747458
H 1.9791329993468365 0.1741478089311928 -1.5506747974761221
H -0.9452260218646411 -0.7180126148036952 -0.7458270167975704
H -0.08347795814379112 1.9337163054284812 -1.9511944268032457
H -5.334774062062774 0.9030447338700344 -1.1785085769646388
H -5.047691203776255 2.6873343815320894 -1.0351532209978391
H -5.171948246825367 1.8836929648730532 -2.651464484388782
