20

C 3.2974160079610093 1.1728492579124776 0.5210626258849287
C 2.5151110824000797 0.14948890259616412 0.7161523588656205
C 1.614682902121174 -0.7995835601517498 0.5141170062758896
C 1.163979742561191 -1.1519975052737625 -0.8557220908017216
C -0.28980873027235055 -1.611602599138121 -0.7184745315587648
C -1.0723923264265143 -0.4562749170563629 -0.14178355261673906
C -1.7438031365081799 -0.4524591447966332 0.9915003232641877
C -2.3670293256057033 0.8404870730862575 1.2096542021628152
C -2.0706596035744744 1.628913388326595 0.1984881059327509
C -1.228432072862976 0.8750551229308089 -0.738721332815819
H 4.332207389057764 1.0564398165409137 0.26358841958963836
H 2.896521529611809 2.1630181924206937 0.6170996513357139
H 1.1880307888543182 -0.29107765902153215 -1.5542503940316637
H 1.779980266004972 -1.9518245649670372 -1.3123449251042576
H -0.6910865538048212 -1.9188045174543886 -1.7043934677248782
H -0.36423702754647913 -2.4975218269801065 -0.05997407175045023
H -1.782559914322968 -1.3427960045841578 1.6327727191248662
H -2.977403202352604 1.1358502405858597 2.051107591583197
H -2.3910558842236127 2.6805191218545255 0.060503410544803855
H -1.8094619310716733 0.7713211831695386 -1.6903820481601393
