14

C -3.0594082076363227 0.636223910751217 -0.4358168199681402
C -2.259709433129328 -0.3990809440723621 -0.27277994789062454
C -1.41010216741363 -1.3823191155562666 -0.1643532290451932
C -0.17983030308744583 -1.270522667445482 -0.9662320381131091
C 0.8729907771317695 -0.6689567769121098 -0.10188841354434722
C 1.680659982702577 0.2867246178821752 -0.543562040281646
C 2.7275036909029664 0.877491698508458 0.33239258532932914
H -2.8897492072136384 1.4342079564601296 0.23947450212342908
H -3.760473786594406 0.5265046807169279 -1.2205429170941604
H -1.7035126406608916 -2.1563753051794166 0.49358866342537544
H 0.9853562637346378 -1.0133722968536072 0.903835857325689
H 3.736572085621859 0.4587029252624812 0.11869128126181823
H 2.7503277840513864 1.9640713752429984 0.1101366166110069
H 2.5093751615905036 0.706699941194806 1.4179670323590559
