21

C 4.6055534776091145 1.550893472390493 -0.3113901201380666
C 3.99276906833667 0.4042472455861553 -0.1418007626508095
C 3.302233674454633 -0.7010008613965057 0.05526749360800172
C 1.9362646923539877 -0.531154437416623 0.44535632520523916
C 0.927983362879253 -1.2362368507140553 -0.040876941357340275
C -0.47675178146711505 -1.0280523800414423 0.3915403980985228
C -1.2226457125579369 -0.45670435859332603 -0.7224899016143117
C -2.52480898468209 -0.36469244263822864 -0.553853212764913
C -3.7974240485938107 -0.20616790832674367 -0.24111977423319345
C -4.151154950483158 1.0366577369333767 0.4191816368049174
H 5.0754763047694205 1.9385631765089575 0.5515434732969053
H 4.5454630324915435 1.939036054917668 -1.3019527038082161
H 3.857516724095591 -1.5841443153881334 -0.10342422480745408
H 1.6756398766100902 0.22403017287697938 1.1935388117519825
H 1.1872659053437433 -1.9862560989995983 -0.7840675209644771
H -0.8854601960821261 -2.01710688497201 0.6542413809771626
H -0.897378672541774 -0.0958280995399498 -1.657187046866226
H -4.395724639593949 -1.0242556235955207 -0.5194981235533879
H -4.158676250453886 0.8711066971594854 1.5287098418681337
H -3.438796437328755 1.8431439236604823 0.21880174054038817
H -5.157344445160257 1.4239217815883363 0.11781153399563525
