12

C 2.4451606893868165 0.0049094970685942966 0.24945524557504237
C 1.2897286013636151 0.4178035391153368 -0.22450889768576024
C 0.09861845464008227 0.7361247325554772 -0.6689281259458977
C -0.9338968223511606 -0.2859188236969722 -0.5721423546317068
C -0.7789855207452556 -1.3285530985375933 0.5253994472207253
C -1.847450819918372 -0.25597561605557173 0.5954795641234472
H 3.072953155481711 -0.460558216078879 -0.4690457658424851
H 2.593308048427562 0.1904334922921259 1.2796218241557065
H 0.035561549001846646 1.7215985680013242 -1.0521754030897679
H -1.3891111896126214 -0.6476619388732104 -1.5308198932164478
H -2.86984992418968 -0.661202432448405 0.5615742894137208
H -1.716036221484481 0.5690002966577966 1.306090069923438
