15

C 3.1662026045242864 0.5348335898104709 -0.2532672428371661
C 2.5270479070657004 -0.5443025678364264 0.14159451194029077
C 1.592061902411132 -1.4467347101737542 0.3174512760852133
C 0.301980548947985 -1.3591520449330539 -0.42616981423362055
C -0.4292116031505199 -0.10575989432705549 -0.10656633373389596
C -1.7285032948163568 -0.12623335048625103 0.17435425560326195
C -2.3694719392064156 1.182529254954087 0.4813436333508084
H 3.7378226724522627 0.5995861630668856 -1.158856019527921
H 3.107543066115947 1.4066589172641406 0.3717777058637005
H -0.3175507644899041 -2.2073548815193207 -0.0668713354985271
H 0.44319392416068754 -1.5003410993831894 -1.5132555780512866
H -2.3338505535714194 -1.0254052743928734 0.19164442355735412
H -2.0439551101979925 1.6114298934874303 1.4391092978722606
H -2.1735011369192505 1.89571781344662 -0.365794980566177
H -3.4798082233261862 1.0845281910223172 0.5277351848839028
