15

C 2.338094360503559 1.2303330255384124 -0.08042448101818515
C 1.2974983338505717 0.4717946196464085 0.1401571387209035
C 0.3382613539233204 -0.3872906642028132 -0.0516244700207923
C 0.5855689604176206 -1.795524108234152 -0.34427879287891433
C -0.9695944767749674 0.13735231928576777 0.03900253735980243
C -2.2428370604849843 0.3797491780660301 -0.4738440513164342
C -2.0265084424119344 0.8787663427875545 0.823254436518336
H 2.644158332871096 1.6369041997242137 -1.004895272548273
H 2.8703946087837324 1.4073780998067942 0.7875056580419852
H 1.5838998559659145 -2.0593661302108868 0.11161222665481264
H 0.6426338432113681 -2.0149247995911224 -1.439036377613259
H -0.1721265351235008 -2.4476981522094294 0.14541821990693263
H -2.868640969338469 0.21399615913362074 -1.364050283767109
H -2.268765643370631 0.3808824050821296 1.7713301171738804
H -1.7520365220227814 1.9676475053773685 0.939873394786374
