44

C -8.6428706541877 2.263763326605523 -0.7497981953292199
C -8.052289494932937 1.1563731003545428 -0.36875553705526776
C -7.379613617390409 0.21870700328536874 0.23183178524085726
C -6.6303598154137084 -0.723766601112147 0.7117800873336266
C -5.197039698640781 -0.5239489297630339 0.8311937025232501
C -4.692177533371915 -0.2115302550465276 2.0109149234283232
C -3.2328282583643495 0.0005635536445710154 2.173142104946652
C -2.6961204041799745 0.5585920039417765 0.894677286674768
C -2.107812884024048 -0.20003071341401515 -0.0016328070827921167
C -1.586597218442592 0.36190740203519595 -1.2505740689398788
C -0.1389674425327604 0.49515663254128556 -1.243133404164293
C 0.5179691816207295 -0.33632407202659836 -0.46433106458471596
C 1.0774098429868284 -1.2700377986806715 0.2907333619267036
C 1.3559145778623065 -2.5015072708991872 -0.37345264882041157
C 2.539500712270723 -2.855515118112701 -0.787746364005626
C 3.771037058497303 -2.1109856563230474 -0.6695426053422189
C 3.9618913631629358 -0.937594113300851 -0.12902841514709193
C 5.392650772070969 -0.577842163345076 -0.24105645173050105
C 5.901145413461545 0.5430717242872078 0.20924941929021895
C 5.114176304119626 1.5434460179603966 0.8622638778333269
C 5.347806779950964 2.790542042415354 0.5131245111167926
C 5.640061621133405 3.993060924352105 0.10537440154543733
C 6.011333142399455 -1.6815331106653228 -0.9110187465898124
C 5.086701295688775 -2.5676001453352253 -1.161199578612544
H -8.421125526815597 2.7059547102627803 -1.6987060417163016
H -9.36366002555847 2.7490685966696407 -0.11236707573244681
H -7.082959059861398 -1.6471898977892698 1.017178544934512
H -4.5946376145796295 -0.6364604778514649 -0.04220692893037143
H -5.3170053888152475 -0.10208387954646236 2.8827335278741093
H -3.070873258138558 0.7403725504316814 2.9877367724790873
H -2.8069282249460747 1.6140572801237532 0.727106028047758
H -2.0143703474587045 -1.2642441018203614 0.20383639613647084
H -1.8848717040714411 -0.22025122271463485 -2.1494152341768977
H 0.4961645944148999 1.155217322608305 -1.7644869624332638
H 1.228996511329643 -0.9685417868430579 1.2899728039377127
H 0.5162302826081282 -3.2008465032995694 -0.5486663632816302
H 2.564913737593411 -3.853061223042865 -1.285237854298636
H 3.254042657399471 -0.2778696226437617 0.3398574970538693
H 6.979409603853385 0.7377063705970403 0.08711072030656741
H 4.360173300451421 1.4412831647730646 1.5945733446962205
H 6.413203741995052 4.483120986464604 0.6627939391338056
H 5.081986114694506 4.343908623682708 -0.7270832384006071
H 7.077409951783528 -1.7168305523619625 -1.144216632520247
H 5.22297961039119 -3.5102781211073504 -1.654048685954623
