20

C 4.441998732124978 1.2093271993745982 0.14585600180930622
C 4.2601307633110865 -0.07709408110820927 0.08964894047379224
C 3.984069691527098 -1.3627334648872673 0.0464600412608964
C 2.6249715726359617 -1.7297796487512629 0.27976163522243386
C 1.629980186718605 -0.9747224823833797 -0.1489272770553395
C 0.28154455118516264 -1.411429226913997 0.12501901427290643
C -0.6930880823870201 -0.5363033879645617 0.16816828663876704
C -1.7592179452630254 0.176430801756538 -0.04897674351434304
C -2.8378851797441573 0.9200183244852879 0.03604092683732045
C -4.127038089749843 0.23305794097948448 0.13082831406222659
C -5.213702285361828 0.9859727498978068 0.21650698021683293
H 4.324469237307947 1.7336764639328799 -0.7787799677646513
H 4.687597130368109 1.595339812218877 1.1128919460665698
H 4.824083775315979 -1.9698340527124742 -0.16011438051471666
H 1.8263787110900944 -0.05759791470681873 -0.6886246511753911
H 0.03909670177278109 -2.4590132805766323 0.3002980989529261
H -2.7556039781004054 1.9873255897674633 0.03441438719513451
H -4.197732101083613 -0.8296067194747562 0.13158242031480494
H -6.1674100586855 0.4963068068735248 0.28670658277201533
H -5.172643332981649 2.0706585701924403 0.2180946725981125
