35

C -6.123573402030722 0.8120140188948657 0.04675419679295496
C -5.063059981127663 0.04544465546236371 0.19005343678238515
C -3.953772968727755 -0.6560641979600097 0.2887028450202702
C -2.7793763919748984 -0.06475942003765704 -0.2772618189548305
C -2.802084327149016 0.6847117132526367 -1.5691491700669793
C -1.6272694116157262 -0.17316245196115249 0.3464876754659218
C -1.5873626510651908 -0.9226553023677165 1.645140107070292
C -0.40674089468782776 0.4338029501745481 -0.2292450507518783
C 0.631561772300841 -0.5951467685606562 -0.4931104710146943
C 0.33445013109313915 -1.7101356997908774 -1.4281198993417754
C 1.80274955249149 -0.5536737635660476 0.07111893280147191
C 3.025741818304926 -0.4176539756367174 0.4891505783397065
C 4.218429958949907 -0.05632816764012452 0.8640696281406446
C 5.283232762805234 0.19226995935634655 -0.12954309305578263
C 5.817089904715709 1.6053712742698194 0.06667066066886948
H -6.283228914896523 1.4915616710506054 0.842598788656077
H -6.669151254522745 0.6439358826149731 -0.8436432506371246
H -4.075394054082043 -1.581561967209579 0.7816643727968287
H -3.8586629652805855 0.717009911467515 -1.9042697455248272
H -2.4914228600047212 1.7406350535971324 -1.4330259843510256
H -2.2404103628346257 0.1589372149657806 -2.361967988338778
H -1.9807530559236808 -1.9497192524252482 1.4257512698205586
H -2.180571573308832 -0.43812992286352614 2.428559086197641
H -0.5496903880503494 -0.9826887552134442 1.9895171198514678
H 0.004696455729539125 1.2191027148734783 0.4350827903727647
H -0.6493811402168947 0.8954711766867511 -1.202358771935089
H 1.1678127837139611 -1.8399567355119921 -2.158522769825546
H -0.6014153102073438 -1.5507025691275025 -1.9747881211685687
H 0.2336039573049871 -2.6878385817585553 -0.8884137020737694
H 4.476445350468553 0.07534736288469736 1.905810389418721
H 6.1238810976393205 -0.4919368511945365 0.04980140552889785
H 4.930478608370147 0.08536175277385001 -1.171150704926082
H 5.793360300559532 1.837450639515731 1.1482571312793766
H 5.200600198055312 2.3451250935321193 -0.4702426704536863
H 6.8791872552046 1.6885613374521138 -0.24406570519777812
