34

C 6.216258382501886 -1.547356639581513 -0.5202318840818154
C 5.053122236846314 -1.634635510706465 -1.097237064521345
C 3.7819563881281977 -1.6883425121135196 -1.3603564109646753
C 2.5362588022291455 -2.0317212161575586 -1.4998408556372134
C 1.4997580049798906 -1.0959838371542912 -1.12338335908719
C 1.5626028038066042 -0.3565295796886407 -0.03211874655905992
C 0.557540330622166 0.5986578567822415 0.3942095663882888
C 0.7137296850112274 1.3602255765040792 1.4659167375184794
C -0.22155353180843051 2.3479171641674004 1.9846670240184867
C -0.6777378500086935 0.7306650571230685 -0.39584846396095186
C -1.8996159017806284 0.6232771008204908 0.3838481568507341
C -2.016262764743501 -0.07545915692473648 1.467783327224293
C -2.026880951550812 -1.010134909761776 2.3656772153022945
C -3.0767383820923544 1.3249282787019452 -0.06121803771416607
C -4.379764643316515 1.2844446961634133 0.6415886807019532
C -4.204523395335897 0.48555878025791654 -0.6674497062321376
C -0.6421306207373535 -0.1262486905680533 -1.5830968447460783
C 0.30722703762266995 -0.9545217938907824 -1.9431522176749827
H 6.79447302834984 -2.415008972154251 -0.22383404749877794
H 6.64132771099911 -0.5754905876979939 -0.3186880948097181
H 2.228190768805276 -2.993992796624331 -1.88815734547402
H 2.4366089007460783 -0.4549603540111368 0.6212335084289131
H 1.6541444830609788 1.232701663490783 2.02772891859226
H -0.742791043095148 2.064188122177619 2.9200053917631634
H 0.39413860815353535 3.250589952102104 2.287519864708389
H -0.8731374472448353 2.7119629087958543 1.1810453191259294
H -1.7339511069608675 -0.7003556792004414 3.3154510817994454
H -2.300868808161544 -1.9975588868816774 2.1755160171117796
H -2.8793174730481983 2.276295254674749 -0.5990306348350743
H -4.52752618086757 0.6991896628347841 1.5592730009938707
H -4.145752920310552 -0.6192742239203246 -0.5443252051186537
H -4.702969682130729 0.870926319220733 -1.56300949691182
H -1.516874179350612 -0.060324639000313644 -2.242748415104211
H 0.19105971067918656 -1.5236284077814515 -2.8481339599749185
