26

C -2.891625618332333 2.9516203941075334 1.8711178061118958
C -2.0879155345560214 2.5249277000123342 0.9096418562441897
C -1.3026845538604115 2.0330842458503153 -0.006624656293226031
C -1.03909885100959 0.6043863321559989 0.05926101066746781
C 0.36154809661619963 0.24571330580712014 -0.2955868278787263
C 1.0461265396807697 -0.6401376033943641 0.3922330958874526
C 2.410849735303886 -0.9524146553041303 0.0013600045170263613
C 3.1261040939408 -1.83882851381701 0.6729995409022032
C 3.055537339598051 -0.28911925377488984 -1.1664652483343914
C -2.0453344491834233 -0.2574167406067972 -0.6246985861075787
C -1.6076465620676468 -1.7052076234381104 -0.45200565962436756
H -2.3920236337843064 3.2569999612336162 2.7490831202888484
H -3.9179828596343467 2.9237635197237624 1.6198740197972676
H -0.9383875296767432 2.756670353011395 -0.7129884481780397
H 0.8118224627603534 0.7261580018486575 -1.1313956165420824
H 0.6348135588885266 -1.155419598714054 1.2487180958940778
H 4.140921815275707 -2.0897522204156047 0.40504765380034896
H 2.656899198079854 -2.3180821352581336 1.5187333705665453
H 3.3784099834947656 0.7334259685140088 -0.9447819727088079
H 2.3431023458944256 -0.28174510365406585 -2.019669889704685
H 3.931778375306686 -0.8817102690812344 -1.4953693507283945
H -2.1326391671022953 0.008382085201636276 -1.6789129144338424
H -3.0052918662622665 -0.1661295678157571 -0.06309851160074949
H -2.366555892312822 -2.3681688009633843 -0.9351614164651139
H -1.545937050489047 -1.952148561639713 0.6150728265629747
H -0.6247899765693888 -1.8688512195883717 -0.9656758812908135
