19

C 3.977206959111958 -0.7415589707076823 -0.041249307438737885
C 2.70939889950956 -0.5058129454171233 -0.22397555996070556
C 1.4814396401191752 -0.19264110984742105 -0.047132236965211564
C 0.26553688747732795 0.22827716845039953 0.18023846503092533
C -0.7645654239234194 -0.775031133983621 0.5042622601213749
C -1.2430061231181557 -1.5438578973549852 -0.6387447761543307
C -2.4461009622103385 -2.058395956766677 -0.536138294143248
C -3.642378040916523 -2.539832403701331 -0.3421316491274995
C -0.08551485495919729 1.648016969802141 0.12045552474628973
C -0.8716871271814685 2.6624280137926446 -0.10186441948933815
C 0.44126319193180885 3.039439325192 0.3540240145600631
H 4.663086409387382 0.0011196483848426627 -0.4334053205288083
H 4.34554278503345 -1.6268661345765485 0.4727100996213254
H -0.7644505670120888 -1.7563134618569582 -1.5547510985220159
H -3.6836540819046126 -3.504378931336482 0.10556431096448711
H -4.440212902277009 -1.9030828101384178 -0.6570560582811769
H -1.8743227695703826 2.9703047993478937 -0.4256682880076309
H 1.2355965350636242 3.376303056987262 -0.36292053671218555
H 0.6968215454388328 3.2218827737299423 1.4088826263307583
