15

C 3.2278254421024233 0.46394226522600646 0.27301583098353
C 1.949457360435323 0.33012290610512396 0.5491320553245544
C 0.6619193452210561 0.1914957527752478 0.6985086498804169
C -0.130681146369071 -0.07652219836474329 -0.5065059372828891
C -0.9392267280355914 -1.3413841922470617 -0.6189762573140577
C -1.6522397157592048 -0.08226100514945399 -0.3161465010150939
C -2.710807885211408 0.6605411848569082 -0.05728548553127096
H 3.783087688645858 -0.43695371461029203 0.31111972094323526
H 3.538168540271567 1.4541062605313386 0.047157097398128615
H 0.33631163951878934 0.29272834876389164 1.7036217882946556
H 0.10943708709323356 0.48051126753406026 -1.4545551380677348
H -0.8335378084426683 -2.0428969183485375 0.24955309356300945
H -1.0170068330375284 -1.7885631002021607 -1.6412750079647007
H -2.651781741655748 1.7349724397833943 0.11718996393034935
H -3.670925244777214 0.16016070334635335 -0.021274767928403947
