18

C 3.5508979786825634 1.1233655340028257 -0.020745175330767394
C 2.353343076728331 0.6237004229808975 -0.2172467537029315
C 1.2481448636013077 0.057785558323191426 -0.5387352456192218
C 0.20012717168020053 -0.5186345408699191 -1.0533690999387908
C -0.8715789846305286 -0.947559671838853 -0.15615899827507523
C -0.7519491959288127 -2.3759832150999003 0.2989820110590103
C -1.1997890599381924 -0.006807315891761706 0.9016212870834469
C -1.8128629492768755 1.0935128452585858 0.5512846323129236
C -2.4279497202897407 2.1706058383813756 0.0963533112678698
H 3.8263915547675986 1.3950772493795354 0.9718430276290778
H 4.264387892082169 1.26817907003599 -0.8278332360494909
H 0.08043561590272655 -0.6979257749343065 -2.1181770726251767
H -0.9574282134435593 -3.023675745402925 -0.5689742226972808
H -1.509711998367339 -2.5580343782977195 1.083209209550412
H 0.2808253373691414 -2.570918867721178 0.6386758639087067
H -1.0117602552756888 -0.07923513643009934 1.9472715773563192
H -1.782681771705464 2.95676058731217 -0.1753899649766231
H -3.478841341957892 2.089787540812053 0.06921766647643987
