24

C -5.856202636423826 -0.36418654403873546 0.10653942335994429
C -4.694634312303949 -0.5053740216722891 0.7056037417755733
C -3.5121910747967413 -0.5142322458695693 1.2218269207876986
C -2.262947575044547 -0.4833669895282793 1.567398889261986
C -1.198352877772625 0.11883047617433082 0.7383523332416059
C -1.8492516587759733 0.6179818999908944 -0.5516012229428803
C -0.1903357836579314 -0.8908104899824837 0.3417118631842772
C 0.8921743708715211 -0.5047121069017216 -0.26381565854871103
C 1.87739503826305 0.005936025993458856 -0.9451706479012182
C 3.0570184919947443 0.4386588442709542 -1.3590378850396472
C 3.970928420689217 1.1358491134180124 -0.5046489500854748
C 4.981366336629808 0.4382062665378558 -0.041669097557970186
C 5.963525332111696 -0.3320025322942709 0.37841165061901433
H -6.649956056754689 -1.066332211140221 0.30359600041651147
H -6.049568947840833 0.44013866782705885 -0.5860924817521652
H -2.0154757685103757 -0.9376154168197248 2.534008037020336
H -2.222359380140533 -0.30297913378105545 -1.064827128315272
H -2.6803853258660113 1.3144846639722279 -0.35351794621551025
H -1.0576195712426226 1.0523655620805787 -1.2031694588277682
H -0.3218186620090825 -1.93394802154462 0.536925889060795
H 3.286261092022238 0.22402900430755407 -2.4092387617422353
H 3.9551669991999687 2.141246320582434 -0.1856744421095118
H 5.7635160841460875 -0.8386620193959103 1.284115433721603
H 6.813747465211349 -0.33566031291571613 -0.25002650141096205
