22

C -1.9205553542196365 2.632405586091741 0.6887520431860035
C -2.013628944937996 1.3067919271133084 0.6532057339266474
C -1.9773330827151467 0.006735456848537852 0.7147826136188327
C -0.982113802667176 -0.6116867481677168 1.5907140489597607
C -0.29198253458748624 -1.8255063340763045 1.0299906839113333
C 0.4965528295999795 -1.4446453125525476 -0.14700652121029995
C 0.7499888600940452 -2.434087187348092 -0.9499703430368562
C 0.9625246443436771 -3.4135288888085493 -1.8071598801466333
C 0.9960816508187048 -0.22783580963274858 -0.4741936171028584
C 1.4706651819442726 0.9345473508135674 -0.8097017354002971
C 1.9978376953697123 2.2729778493160753 -1.1763564713662213
H -2.303211722903369 3.0765203760092605 1.563872252402368
H -1.4701253254785818 3.024155953334622 -0.17753109493463748
H -2.694141361525486 -0.4767392852868423 0.11885690934296846
H -0.20234099169677208 0.12347637588171989 1.879431929265701
H -1.5218805724773838 -0.8737011375127051 2.547495683738176
H 0.34774652900853753 -2.2514277273417704 1.8421111038176312
H 0.23272280761754885 -3.511992859267287 -2.575724355137123
H 1.8343683213015072 -3.9686071646407344 -1.6103359153605674
H 2.0726674299733205 2.8862922801632784 -0.29476481005801464
H 2.9213234565785595 2.057644838705364 -1.7277503313441163
H 1.2948342829407828 2.718210455493626 -1.9452976852498478
