20

C -3.028326057903197 1.0522578939187148 -0.17936203484320457
C -2.616214363490211 -0.022169998097368634 0.4727675287661961
C -2.1388159406328273 -1.0732508496821227 1.0797926286582809
C -1.0482737042602586 -1.7403669975531526 0.4256312995991343
C 0.054565669601292326 -1.092759742631872 0.09055995307714912
C 1.2132209724024763 -1.6903681603423777 -0.5770036709727734
C 2.097655988403042 -0.7424965902955869 -0.7399568149505161
C 1.5845140325155465 0.5026317863121003 -0.20226441434996212
C 2.2740664643775443 1.8275589525898863 -0.18469791875114158
C 0.3904468430992825 0.30915681872284745 0.28589820249507325
H -2.539482079510398 1.9495462775313086 0.08288877390814335
H -3.7944437878946364 0.8542172359233837 -0.8758006661761286
H -2.616268309235262 -1.3165219049586745 1.9962538463739106
H -1.1493556354515015 -2.794168018611603 0.21082115845474933
H 1.3251714438066962 -2.7337204651479663 -0.8848184252593143
H 3.065752441759806 -0.8866091402206935 -1.2100365081267002
H 1.7912270916317343 2.504081186212357 -0.9381308733358421
H 3.3379091790685167 1.7561191472928273 -0.43316185262222373
H 2.0840442393031533 2.3077917553927 0.812761046575873
H -0.28739448759084346 1.0290708136452833 0.7678587414793303
