20

C -4.201459635118791 0.9164975515155963 -0.11984864001464919
C -3.0114002395588453 0.5792955076631151 0.32254247607646447
C -1.832470471967822 0.15482733580855684 0.7173262020379718
C -1.4265583974014793 -1.1651028187380597 0.268890980316495
C -0.2058551442652807 -1.1394802860064295 -0.632075180119333
C 0.950938385035522 -0.5275880063498053 0.12979262524656623
C 2.174294780188578 -0.46093319751197837 -0.6604805681198613
C 3.0762438156266567 0.4165901003993167 -0.2690738668907716
C 3.9106946535329894 1.3185192863668642 0.19203986709423548
H -4.998953665219542 0.6402614065115491 0.5129574583554628
H -4.195963595545785 1.4177004577472279 -1.0499230705846447
H -1.3118187651298785 0.848674059194336 1.3304252862451462
H -1.3352389186328344 -1.935602417858066 1.0435054339176664
H -0.36581552864807926 -0.5347922352747706 -1.5343117830971948
H 0.09573577845259089 -2.138355025698988 -0.9402096255837215
H 1.1590333185627602 -1.1158891947962482 1.0587468527913537
H 0.6689192415330281 0.501024918066097 0.4414865747910123
H 2.462237925570381 -1.0126734242204551 -1.513675400292227
H 4.596753688515929 0.9514214835463761 0.9176827315794687
H 3.790682774469882 2.2856044996356775 -0.21579835374946338
