20

C -1.9693067594014897 -0.13920140767968148 -1.2699711223643049
C -0.8024375693406385 -0.15541848456104287 -0.7185021341953313
C 0.3565398198554366 -0.2369464654033613 -0.15343177346706047
C 0.6392759915493462 -1.204196764813552 0.8448234546850693
C -0.030419526108230257 -2.4944564927950292 0.7737414169601211
C 0.24714150121446277 -3.3843255483071517 -0.16271845868624854
C 1.3628845716336353 0.682007462586239 -0.5644944339306357
C 1.3852504499167146 1.9504131230659247 -0.1344080153999716
C 0.3334050027025797 2.3593846965394856 0.777485756522282
C 0.3345174523845478 3.6022351418007466 1.2120224515216134
H -2.1482347141041314 -0.714993664178693 -2.1155694578040336
H -2.713356279790649 0.45456015055867116 -0.8529994583298414
H 0.6906422805129592 -0.7635781524644801 1.8583731749621168
H -0.7812229070773595 -2.7469908999327273 1.5040608195627936
H 0.9941823947740301 -3.1946941377844675 -0.9307025818447388
H -0.27048920994875897 -4.340442646026155 -0.19019162141256762
H 2.158126465184857 0.36685978319313445 -1.2555808407522526
H -0.44844949357661357 1.6999130136282152 1.1180508858991067
H -0.43338244188004754 3.9403810293717005 1.8918867930256282
H 1.095332969814453 4.319490262379876 0.9073093647238534
