35

C -4.75759930061349 -1.3514848401027644 2.481469274341032
C -3.775008977744559 -0.6000778459789023 2.856743124975044
C -2.8936626979442037 0.2993174984395293 3.2761678419439177
C -2.3197034883411587 1.091829147521688 2.238369589478648
C -1.8829225596468404 2.2559807692040446 2.5925399198939285
C -1.6112291990531151 3.5025906781044522 2.9459721727571724
C -2.1716760704673246 0.7214849078160418 0.8490778143168483
C -1.2877242921210679 -0.5094320669559594 0.6608891604291799
C 0.09031107644479798 -0.31349712951224346 1.1184806636002387
C 1.1294512309567046 -0.4768874725216195 0.2631718029924836
C 0.8341341027810719 -0.8590671116850953 -1.1504037497576798
C 1.847147098308398 -0.5790569165939387 -2.0867481745862944
C 2.7099726538842965 -0.6191618900918208 -2.9535927155402333
C 3.014044992530178 -1.9729880613051256 -3.585954635706465
C 3.523995067042898 0.4842856382222133 -3.4811897749069605
C 4.386289662838007 0.4006325454153709 -4.386055740719954
H -4.460270356212115 -2.3591129409277762 2.2967115806800416
H -5.709636246643784 -0.897974467797947 2.405392870470158
H -2.74466473597898 0.3114962063873529 4.314252312611669
H -0.647772724455553 3.617539101717433 3.3059662446440354
H -2.400733822115996 4.192052810151694 2.8189024629411046
H -3.16629408093371 0.4174609184383025 0.4256014975830305
H -1.8232632578932155 1.5609185327786468 0.20876176742409078
H -1.2585113148245763 -0.723522244269906 -0.4288146737324649
H -1.7921416501018865 -1.36917769213403 1.1494588614952008
H 0.3180172936593136 -0.04286034165169128 2.1226910640616214
H 2.1268391657346153 -0.33436480579561156 0.5884657484092085
H 0.5309680413185563 -1.943109730078928 -1.1023186494052388
H 1.918335239436 0.7131403113976336 -1.80504799939607
H 2.952263157669663 -2.717764826215042 -2.7433657627702286
H 4.07148010372475 -1.9882428438267177 -3.8928688578055284
H 2.2887008157496145 -2.2533892505449264 -4.324357781592038
H 3.343298151377791 1.4777795843078496 -3.004485098551682
H 4.680739596567639 -0.4675526198266977 -4.9344505795532045
H 4.936827331499228 1.332216451160573 -4.692350617848217
