20

C 3.5893251178347065 1.9292189314377775 -0.3667866707079534
C 3.1037405324385 0.738964140745396 -0.11790366346922328
C 2.716586078194499 -0.49499740552844435 -0.021445217501870322
C 2.1653527091652904 -1.6675441398494462 0.1158838391965782
C 0.8808843216814519 -1.9403437278030005 -0.5434404282391655
C -0.09666473525085605 -0.833188284131535 -0.40203489393853137
C -0.7325121625016285 -0.5481247569454126 0.706561861428582
C -1.697684072834662 0.5803298267255995 0.7636721460378354
C -3.0508806712675023 0.20252968157613244 0.2937402875125504
C -3.6801701463637597 0.946195008892846 -0.600951125410831
H 3.432779758619487 2.336068418518662 -1.3451719888601859
H 4.12633451448521 2.4624984504106875 0.40655232946446873
H 2.7096331784758845 -2.377451545806188 0.7239791942362247
H 0.470587254565875 -2.9265577967198784 -0.3500267420281656
H -0.2826931169858572 -0.23355120357849343 -1.2838767454219546
H -0.5451375462474723 -1.1517747197187969 1.5940512487648626
H -1.690757810208487 1.1111146818547613 1.7241955283867374
H -3.548403361818459 -0.6781322330075356 0.666492331077389
H -3.2058110282436525 1.8410551649988307 -0.9969653765801253
H -4.66450881373869 0.7036915079280813 -0.9665259139472406
