22

C -4.191775398644048 2.592236793724762 1.1071017496686846
C -2.975270700120074 2.4090941111158877 0.633655707707264
C -1.7906882850990868 2.1300570055102073 0.14692275166546645
C -1.5657137788334647 0.7897021061160953 -0.2781183674463709
C -2.5573794086546195 0.06796029793950953 -1.108801183725068
C -0.4760951086030629 0.16877662652981845 0.05786536218388591
C 0.6897169610387364 -0.3907102238943764 0.21648763877911104
C 1.7769249900124038 -1.0710616091869094 0.3902372924160517
C 2.9817172464530612 -0.7711922148497523 -0.4095581615058354
C 3.807558001531726 -1.947386162816883 -0.6772901045819268
C 4.704001968043458 -2.3478513922579762 0.2055450089707755
H -4.28493487544915 2.424633435199605 2.145920819107792
H -4.903019423921155 2.880421298722436 0.38006151817921624
H -1.1287335232851026 2.9633247828566196 0.13048963344569478
H -3.5810598218811784 0.10349417945921494 -0.6868506883487527
H -2.249553731368049 -0.9700222709576016 -1.334190573025099
H -2.557194901327391 0.5944497637696663 -2.10800556414447
H 1.7927662611234945 -1.8513322976337052 1.118201725365813
H 2.6618478873868057 -0.2492157823663654 -1.3275959627582896
H 3.6997920922474545 -2.504017600403738 -1.5932915277692468
H 5.3268455705928845 -3.222647457105151 0.020070942733801507
H 4.820247978783621 -1.7987133894333147 1.1248937766730112
