44

C 10.120174700710109 0.41354733915672504 -1.1597615763431084
C 9.322563325596954 0.1292238593944825 -2.160050550287839
C 8.47591818651639 -0.22381905466260768 -3.1100033138849277
C 7.565163041511303 -1.2696146988591948 -2.7930618999423102
C 6.578681837078584 -0.96721100187456 -1.9956770878366814
C 5.5650998210837415 -0.5420147457161234 -1.268622304554633
C 4.4259278372356485 -0.013140873601514369 -2.009072084122367
C 3.2861082873385894 -0.9421332241071937 -2.1893058861420167
C 3.1078462766418746 0.13702638109825255 -1.377430258142073
C 2.2259113566299558 0.8887620221131901 -0.5079594921551053
C 0.9819532465343617 0.5341160833805685 -0.2522128637578763
C 0.3516226692645759 -0.6438934790796146 -0.8074589507503308
C -0.8878685097405308 -0.9963865038053844 -0.5518967421517401
C -1.7640187792037376 -0.24851567949929862 0.31279124692625004
C -3.007421171813599 -0.6660992250243541 0.5252900336134716
C -3.8901794057815535 0.08975034921363419 1.3981208111871948
C -5.149342691775445 -0.2107582547715156 1.6972998910992898
C -5.6784462987701785 0.7863280558530432 2.5936951858215225
C -6.916061572214918 0.803413974982795 3.1020879130684533
C -7.850349341306764 -0.22519628283181142 2.771336150249592
C -8.835345969929733 0.11603734162845515 1.9669090824786635
C -9.785015466159079 0.5471518187162511 1.1605651725780952
C -4.602701623251325 1.744976620583546 2.8196370835947424
C -3.5737159164556043 1.3206112886896277 2.1155367584798404
H 9.759141020409425 1.1574144421391377 -0.499759970688617
H 11.025410769706772 -0.1436306374212438 -1.1448970192436723
H 8.591497321938226 0.33287141623441974 -4.002586166706844
H 7.554241684683951 -2.2938542748004807 -3.111402439698818
H 5.721179000953238 -0.6437608190031966 -0.23038441253264452
H 4.6508584562783835 0.7157291299307273 -2.820343803475405
H 2.961500156122311 -1.8428694955367275 -2.6771040524836733
H 2.605459044569974 1.7875168284650962 -0.04363484222829815
H 0.39426264017529955 1.1642865429646247 0.4157901058280084
H 0.9773792957197756 -1.2506791311598715 -1.4748441970735418
H -1.2654406567530778 -1.9136306171325854 -1.0297343231652505
H -1.4626189880107379 0.6559144738686089 0.8123525609152332
H -3.335473125997462 -1.5581437087503744 0.044921729251595134
H -5.67397828594338 -1.0639389401773884 1.322499880843638
H -7.157281508198935 1.631969263269294 3.7673203719833306
H -7.878720842094559 -1.2363333660123903 3.0744762987356373
H -10.63597421386209 0.9318924709447886 1.6561015776810812
H -9.560493725593446 0.4476201141866416 0.13222707119566138
H -4.71362410956215 2.602989645064167 3.452758937614941
H -2.623827772820982 1.8178835376014861 2.0754863695545156
