27

C 6.629246126374897 0.5332302957754611 -0.27712313698175034
C 5.416728749908077 0.18122829459434514 0.04886535612813472
C 4.186135357586043 -0.09672230477318573 0.3338611862083045
C 2.9589547210076357 -0.34701775953976205 0.7026668370606919
C 2.0713742595962565 0.7784671305023478 1.075015589344978
C 1.2133178492062624 1.2421822408513177 0.003408191132964186
C 0.11625282906906548 0.5428556060765084 -0.19079497878388188
C -0.9341863561627065 -0.22439749881576374 -0.2869010990845026
C -0.8055878145985444 -1.3377150655414716 -1.1583487950825575
C -1.8185533749470244 -2.1756623562232704 -1.3227833131047657
C -2.074684793613248 0.17741951121035976 0.5159770900595096
C -3.220280226626246 0.4334606894694568 -0.38098177804511724
C -4.362982777182312 0.6517260975674485 0.20363439239690342
C -5.479404738722615 0.862189007070901 0.8656958931866443
H 7.1069563386566434 1.3306049675720475 0.2882056071889754
H 7.14746839971055 0.04538559474956849 -1.088705022137989
H 2.610588699340561 -1.353603805962731 0.7317511273217007
H 1.5610952982844746 0.614175136308683 2.0432185262395746
H 1.2944429591628503 2.0461788003493706 -0.6666525330053006
H 0.08942867779337084 -1.5793116603660116 -1.7314460456070664
H -2.7375339903949154 -2.005532296405874 -0.7913367658539594
H -1.7861108958979437 -3.0469503838743828 -1.9745876103936657
H -2.3220691532477193 -0.6827787042568414 1.1978006845692246
H -1.9126630906602726 1.0830357730353712 1.123324396417743
H -3.239718517269825 0.46386973235481754 -1.433696662890022
H -5.6622878590731425 1.8754280876218885 1.1119643750676111
H -6.045926677299811 -0.011745129350764367 1.064599649740172
