27

C 4.296791218211575 -0.08556790595937831 1.017283092647301
C 3.6346784612611285 0.17473676347949402 -0.10190239949262075
C 2.9036962338523926 0.4018866769244778 -1.1420854301096866
C 1.490438754945829 0.27399613240270176 -1.0279731923817603
C 0.7091046648541822 0.5019394455836735 -2.0841206768095697
C 0.8512097518757679 -0.10622753882460167 0.23187921076392676
C 1.3452154741426319 -1.4502296662838217 0.7265277970537386
C -0.6320115535695212 -0.0874539361171542 0.16317003479464226
C -1.3951303062818323 -1.0538855894815287 -0.3218990392511197
C -2.7720537746179437 -0.6555865692722925 -0.21020759506185244
C -2.8960740115639263 0.5404061267003504 0.33436231471755773
C -4.163298469651286 1.252048361557991 0.5961403148962371
C -1.5076329728020401 1.0010124832741543 0.6189792378290982
H 4.447369059218755 0.7609968657675846 1.6305997239259624
H 4.57387483381621 -1.0968520829721675 1.1308930949615021
H 3.4601689266781257 0.6753914808041116 -2.023338122164014
H 1.1763368561109127 0.782353134337478 -3.014306326352841
H -0.3836229174098024 0.4112802437801211 -2.0267332433579055
H 1.7497129901737078 -1.288336155440988 1.7490864195472615
H 0.5071453726088895 -2.1713562050983164 0.7144273972770694
H 2.138332517527062 -1.8042935847709314 0.039596378721194585
H -0.9888030373486234 -1.9737360430081405 -0.7245146723196604
H -3.618773052580691 -1.2708033764839053 -0.5378239765777129
H -4.561113736738953 0.9566531883465997 1.6110981780892473
H -4.962227499311314 1.0137179804230574 -0.11972743636593706
H -4.040148596363746 2.348592844689867 0.6274173520857232
H -1.363185187037392 1.9493169256416343 0.05824314807070529
