35

C 6.451269624491789 -0.7758957637970073 -0.8021569015473324
C 5.054394645155215 -0.697028003098894 -1.1239194002020052
C 3.9855136844509356 -1.1220441196261974 -0.6982475856122998
C 2.749767086524835 -1.4582837975785763 -0.26996548421440825
C 3.206732318030064 -2.8930313494011246 0.3038487248687693
C 1.4041149209086174 -1.599328048234967 0.08304559738980852
C 0.6478301979005657 -0.5776090891487807 -0.2882429311707489
C -0.7646832315502987 -1.5592236489423834 0.4825403645698361
C -0.1899913998801761 0.4061881878215449 -0.6033753871943379
C 0.3828814132621974 1.2976279011841718 -1.5252609634948369
C -1.4614619111861968 0.8986063359788212 -0.15933130888801286
C -2.4440716900087174 0.608297851193514 0.6105189925674879
C -3.492921509953841 1.6671610856989343 0.5744894532764759
C -4.730573779764204 1.5861715460583619 1.368529494408784
C -4.975222388716481 0.5081517926223479 2.0910705684481403
C -3.1214733730409465 2.6172851032462794 -0.21743447408432054
C -1.8726017535880661 2.3014902287390204 -0.7802620138588372
H 6.839131438090759 -1.6895283571211286 -1.0262271105459337
H 6.732736357075432 0.10366568283459054 -0.43917358980446697
H 3.457200184929289 0.17953645838172339 -1.0851461791721766
H 4.202299336545768 -2.936695082228465 0.09807614744397114
H 2.5027447601215225 -3.396049701236656 0.7182216722329574
H 1.1096480915960056 -2.486692958249248 0.6423845817041692
H -1.4297364350209734 -1.198015886278081 -0.2770916284611846
H -0.586861573264215 -1.0590994095332333 1.3646063372280133
H -0.29595048325861123 -2.473247113849029 0.15098291935573735
H 1.434889082068155 1.0304631794565968 -1.8102828718873583
H -0.02831403176970401 2.0711823562101443 -2.0189076358805536
H -2.518537787523909 -0.25706160465485617 1.218168660226698
H -5.395170605022249 2.400117328674857 1.363261611989001
H -4.213001391525631 -0.309560977656662 2.0589075397597347
H -5.826537363751095 0.337860165014702 2.6561215575051347
H -3.8240760614681117 3.4937693027312426 -0.2998939791894323
H -1.0122353750115372 2.9181007782846664 -0.49214054698889803
H -1.9777309961961709 2.0627196268668517 -1.867714230122077
