17

C 3.4223407910745283 1.0671081592400486 0.8101493054014095
C 2.6302496446233943 0.04085429098133332 0.8969013711956914
C 1.6973891197543005 -0.8831105843770307 0.7113180890522451
C 0.8030303112342836 -0.7501316270180095 -0.4805597506510811
C 0.16905929775068565 0.6081223938140287 -0.5962864824179949
C -0.6425487882674689 -0.6602039014193807 -0.2981514471252156
C -1.8572651275236214 -1.1383327466634965 -0.06272679166300796
C -3.0743624748799383 -0.24817660821134568 -0.029970492713704767
H 4.325027343221678 1.0555625136367712 0.23810559469962886
H 3.155098714921905 1.9608186798400613 1.3321073522434723
H 1.251046956703156 -1.1292991940797559 -1.4109513462631194
H -0.03725143903389838 1.048596989476467 -1.5834497603516695
H 0.18835065020048372 1.297086533361558 0.2685298350522987
H -1.941720156960637 -2.2049746422996854 0.10695984683215139
H -3.0214039764128575 0.4643922410663782 -0.8920737835514573
H -3.9702636477877213 -0.8730639011167078 -0.11949486055452564
H -3.096777218618267 0.34475140376878066 0.9069502502562332
