25

C -6.458691400953986 0.28973254412406657 -0.24817664988863553
C -5.193807512431748 -0.026519955019600194 -0.34688593469482937
C -3.918960057216289 -0.24994978150220004 -0.4117349575200795
C -2.7060191618172142 -0.28616296717658085 -0.8530265959486011
C -1.443665266455376 -0.3564597835641491 -1.1746594120988425
C -0.37828338499660646 0.08702325197126207 -0.28028430509661945
C -0.615580083784741 1.2031568794994607 0.6639398031783579
C 0.7901796700211418 -0.5259990860354 -0.3340928599947084
C 1.6934640796163978 -1.5589714109728159 -0.9018618050748028
C 1.9259522232731703 -2.556493189300349 -1.7365915097538993
C 2.170457176665676 -0.6473428635519883 0.16963405028655792
C 3.0566181829547228 -0.18429985046677383 1.0009307385864146
C 4.004910556019802 0.3628605635511017 1.7244507554011654
C 4.941518435428234 1.3053430604805973 1.0168348818269461
H -6.81186443271233 1.3211054241079698 -0.27946530850834517
H -7.216250390048442 -0.46943574469026417 -0.1298683678237866
H -1.2031401015367493 -0.7656904602041635 -2.1537347224419383
H -1.5029127427125235 0.9513395489498548 1.3111813147349258
H 0.2698434222773112 1.3753615352289998 1.284780264612414
H -0.8352278720774716 2.1604622484209695 0.11020995440299296
H 2.887235237704395 -3.047012440054818 -1.7678630721671524
H 1.1551173186884447 -2.8808741733990555 -2.387002318009421
H 5.790382133858912 1.5812452130743746 1.640150231484515
H 4.324442839695104 2.1562586840964646 0.6658919560564871
H 5.274281130541146 0.7613227524329769 0.09277997448954999
