16

C -4.101300245724763 0.4230464284024613 0.36691315835595045
C -2.977024360876963 -0.18011757238269846 0.043225015161679176
C -1.8226623137768334 -0.7063864796209968 -0.25609348689553313
C -0.6670377651161037 0.13145182256808727 -0.05231266287683371
C 0.4771611379287738 -0.4426102527896655 0.2473670886837461
C 1.6793054337106932 0.3840920003315811 0.4624705857824459
C 2.8883107463757796 -0.16031920919603268 -0.19604346501022651
C 3.912295131987502 0.6392788198544334 -0.4901642763062541
H -4.558033931653769 0.9551509191858362 -0.42055816009302754
H -4.394219339031179 0.2927448442730019 1.3744165617862114
H -1.86509661397676 -1.696310109557186 -0.6174399856296515
H -0.715875527853167 1.2036229425039082 -0.13823672787312322
H 0.5860022316857396 -1.5195857804475976 0.34721599796106317
H 2.906430267871983 -1.2191034392547877 -0.4255787318857429
H 4.7877480514378705 0.21440479380794558 -0.9734241289617115
H 3.863997097012422 1.6806402723192624 -0.25064735857905046
