21

C -3.7937905422866924 -0.45676803081271994 0.6288487233399761
C -2.5011124097680675 -0.4080554060533308 0.5682151070971083
C -1.2200084838642613 -0.3304678748083153 0.45220432087564694
C -0.27448219162597565 -1.2014638594989493 1.0791745611970434
C 0.967690426831675 -0.8350352930085151 0.7428246287838676
C 2.4006784578071376 -1.1532995127827854 0.9237489501767718
C 3.1238021116802983 -0.25996899835428045 -0.04414122360500106
C 2.163457760867421 0.7675980240201619 -0.5407389754932801
C 0.8188790387346006 0.3310321446124365 -0.14599205405695279
C -0.46365808505449063 0.6189480667865866 -0.31032149077736626
C -1.0382547756976719 1.7171343929902796 -1.1282508775967168
H -4.314140416416787 -1.0296330258627509 -0.07013963601916814
H -4.269593670941435 0.08474438355873552 1.3820877921511656
H -0.49347245481235347 -2.0305938767572598 1.7255217611320972
H 2.6492536560578888 -2.1994436447949743 0.7699068467041348
H 3.988341137262735 0.19323571563321423 0.48032598689462713
H 3.5720428619185993 -0.8447552781409593 -0.8972217479589035
H 2.257695811424384 0.9985431371594811 -1.6126124754147595
H -0.28716708176202643 2.0784745171787486 -1.8655483666652768
H -1.3231833482281217 2.570017037080318 -0.4836536397380755
H -1.9629778021288442 1.38975738185406 -1.6542381910271218
