35

C -5.844720561968696 1.5494186586261434 0.787573197188929
C -4.9811315464111106 0.5845913998668094 1.0325133844547543
C -4.063778085499568 -0.3322944014268919 1.2319788635977356
C -2.781688785362455 -0.08286138311148374 0.6328736732579056
C -2.028340649842767 0.9090888234721903 1.0231239641865784
C -0.7249591214756128 1.2556832947412067 0.4927005799420082
C -0.20510817246940238 0.35617527273460403 -0.5524986528229292
C 1.2016809391709877 -0.08563548692402677 -0.2517370212794771
C 1.7111201762015744 -1.2793391263176306 -0.29849033401722214
C 3.143222129830304 -1.1624520084619578 0.09228106238122434
C 3.34853395761952 0.27531354079342985 0.36218842108256993
C 4.609378054128665 0.8938604913776187 0.7839153185141452
C 5.700559966551066 0.18233362753263857 0.9612959603038349
C 2.2138202542703884 0.8815608931745101 0.15763058861402837
C -1.065079723807915 -0.7151213840541177 -0.9582240718853815
C -0.6876846873302578 -1.690222750745015 -2.067277149547186
C -2.236245701463431 -0.9351142087435053 -0.43431168891711686
H -5.845941790033049 2.3245895054344445 1.503283024720359
H -6.413420823776347 1.4091381693711895 -0.09287667559594213
H -4.382789839826707 -1.150697666826022 1.814757845333182
H -2.4310896579403325 1.5358212967273648 1.8330321477922134
H -0.6797560431554299 2.347504724365885 0.1783202207352092
H 0.0324235531954301 1.1712700682695913 1.362102386030415
H -0.09397923764247267 1.0247673347588306 -1.492520267228966
H 1.2282132791941975 -2.2045247773282717 -0.5594821103289663
H 3.80558991300095 -1.5623701175517117 -0.6799745919499935
H 3.3133649424743234 -1.7562843552812015 1.0140048006947526
H 4.629372489578878 1.9639591028362666 0.9501420060131014
H 6.606465984026514 0.6635979244269697 1.2698381997306714
H 5.721594518870174 -0.8794524415385114 0.8070379865186983
H 2.0893234986770546 1.965401365302204 0.2882573888208388
H 0.24285251254743542 -1.3968004276410002 -2.563218785911854
H -0.7644213796667725 -2.7330182147187427 -1.7375664112641858
H -1.4944959432166056 -1.5637725163978768 -2.8344903153223275
H -2.8728844184489915 -1.7641142267436825 -0.7611267839593082
