22

C -5.051980116741305 -0.7792763463694308 -0.6243923068144881
C -4.117134597891643 0.1464338439945491 -0.6180545835142067
C -3.1458656684883275 1.0207858751941257 -0.5460777929350089
C -2.1197026652553608 0.7572424971384533 0.42108823565878917
C -0.8584988899591272 1.002315853162283 0.10910565667565565
C 0.27410749325172185 0.7618554572708299 1.0436058986615926
C 1.436912193318803 0.26631882954089825 0.28372076555791126
C 1.6578457465332594 -1.0260590444407764 0.17515808781941175
C 2.7911227195994304 -1.5165187694348436 -0.5652094221948674
C 3.901777131969132 -0.8406386296163504 -0.430225188687516
C 4.979375965122723 -0.11837474554822813 -0.24163055597504576
H -5.858586255527532 -0.5920909470396231 0.03439196718614016
H -4.868428675869097 -1.5834234173480477 -1.2863385518016037
H -3.2350547304819286 1.82860650649952 -1.2192473040474576
H -2.34090805430846 0.3707559211483152 1.3818105094825683
H -0.5809339563775955 1.4018670083588256 -0.8711210989300258
H 0.5136572652589978 1.743853229726012 1.5057820627001652
H 2.097179480690209 0.9750969210432726 -0.1773692445953939
H 0.9804050558441649 -1.731859152285544 0.647560430788467
H 2.8564018107517795 -2.3527894393927262 -1.2091124497224088
H 5.096566110371927 0.6888527058128363 -0.9306103234923724
H 5.591742638187087 -0.42295415741433967 0.5632141975569459
