20

C 3.7212103507297773 0.7758918244393159 1.2191671135040967
C 2.627419231856445 0.6453760312865637 0.511724710186496
C 1.5553991643354137 0.44308773553742226 -0.22495462629625726
C 1.4504824679185102 -0.8732397945205406 -0.8480934692846703
C -0.01588414474076937 -1.2329816626229766 -1.0055805957267485
C -0.6858158684562906 -1.2676786496799002 0.29254806411729184
C -1.6996730025634437 -0.5048354762339562 0.60535416358885
C -2.277161279724376 0.4576219213075554 -0.28595435147418635
C -3.3191851448318004 1.1927391557490596 0.13456985817885497
H 3.623680588822812 0.4890375871355766 2.2395008265125957
H 4.559596530260796 1.1473431600788622 0.688645735753611
H 0.9010469145226864 1.270155602363227 -0.2706246703473612
H 1.8779821652079993 -0.7801558904177088 -1.8894033022724686
H -0.4331986366815456 -0.5136444293072499 -1.7113214731215196
H -0.025669304867923466 -2.2684522029530734 -1.4646300370230592
H -0.326120743640615 -1.9766423465550138 1.069451265771393
H -2.136307277812553 -0.6068812502753579 1.612329211508318
H -1.9323136419336013 0.6516719532452542 -1.310921152049926
H -3.6744082217443386 1.0224653993080364 1.1304835118085588
H -3.791080146657091 1.9291213321153187 -0.4922907833331162
