44

C 7.489283111111157 2.7330194811331436 0.6681582528509914
C 6.388995971244949 2.1235783695666823 0.3212847897929331
C 5.306624379784281 1.686587303238668 -0.25263742924076243
C 4.3395993339026715 1.2920193601465468 -1.0251597146573774
C 3.8504973251593215 -0.0981249566507957 -0.8707708619605874
C 5.05809628276067 -1.0171702518099577 -0.8840370199308193
C 3.1307098970833143 -0.3133032883602727 0.3912611004029288
C 2.0177209528388214 -0.9951463304942484 0.25961364614028287
C 0.9824839877132611 -1.7430508272306218 0.06807108024199858
C 0.9136984415590449 -3.1649205820141164 0.11073636427470258
C -0.34613006354957015 -3.5672945285957756 -0.15747918784423146
C -1.1598039499052644 -2.4537100948174935 -0.3990096891031809
C -0.3016378891642298 -1.239313498889668 -0.23055778788622708
C -0.9044350027803529 -0.01951146211334948 -0.3897267410644863
C -2.3117893923318915 0.030554639583871078 -0.7018404315661148
C -3.1544934786035417 1.1777837397930029 -0.5491872636104868
C -2.974829050375127 2.435565410991118 -1.0014060447557047
C -3.9459526345251925 3.4741126452893387 -0.7462112149152315
C -3.7481817347464506 4.722169965472516 -1.2059751018442777
C -4.349459533058527 0.7721006670989168 0.23509382489180847
C -4.212389242694728 -0.49416516659473636 0.5866666242107995
C -5.010248139002628 -1.4805374809552299 1.3663353465286503
C -4.511923041231569 -2.694004113660719 1.537629127342814
C -3.2120243033226608 -3.1870619849983344 1.0280677225113506
C -2.4363986628043217 -2.2185429498567606 0.25370297515329965
C -2.9851497703582823 -1.0114336882181068 0.10790673390279709
H 7.515345074909375 3.71085271556489 1.1289775950004963
H 8.436934473053663 2.238264640683974 0.48788012632288913
H 3.8659496527240114 1.909672451633955 -1.774822399602073
H 5.3027932580435255 -1.3879689443668066 0.15209733685503046
H 5.96472068298995 -0.536925847298948 -1.2613467206111897
H 4.7975332261344095 -1.959933410040795 -1.4480996475235155
H 3.333929533722197 -0.0297685584280964 1.3684836390766415
H 1.6953741817347217 -3.883141872381789 0.3167557350930959
H -0.646461688602265 -4.630918310862515 -0.17324710669041637
H -0.2915346472723012 0.8307426917810004 -0.27233804169265086
H -2.0862125157992697 2.6394711000321545 -1.5573389450603474
H -4.843496056225411 3.2660100878037683 -0.1837710398086273
H -4.5013778211762 5.454887082832423 -0.9877206151472058
H -2.859660278692168 4.964855811258606 -1.772757788756804
H -5.162926455778707 1.4048401519657474 0.4627956236734244
H -5.961179786654592 -1.186121514169223 1.7669004554028824
H -5.133359649285686 -3.3968623302561607 2.1170835800216716
H -3.339234978528863 -4.1581563228054 0.5162350859042794
