20

C -2.759154459747092 -2.014025469248219 -0.10863435108580206
C -2.1840582188212916 -0.9208914763120688 0.35766835292178656
C -1.5443259322147818 0.15175077974433687 0.7689504469032163
C -0.27039397863110076 0.4140774173233429 0.1953070843499075
C 0.06697997925076313 1.6793739168018726 -0.34536229361735526
C -0.3241751581044147 2.8176334509639873 0.20205415680813218
C 0.5958361962215749 -0.7536843947857932 -0.09005989484083177
C 1.8848155439446768 -0.41804706767370964 -0.6759072470106332
C 3.008429600884327 -0.7490063053645721 -0.05271190915473649
H -3.3665429496317256 -1.8572368830261752 -0.9556050508393137
H -2.5279832537461555 -2.889598630901349 0.4328416010225283
H -2.1027863748592783 0.7050838747186827 1.517162808824993
H 0.6768556404063699 1.7652825601528306 -1.2556007951282322
H -0.925421736701521 2.757195030206359 1.0986843371195518
H -0.06967740550139695 3.805302382371696 -0.2068344898574206
H 0.7589154727130524 -1.3067146475824853 0.8543183845248387
H 0.09737830685348743 -1.499918527826292 -0.77664902815907
H 2.0042973446250745 0.11268476500339812 -1.6388075742975543
H 4.000865994524461 -0.5273057937480989 -0.4370017807074928
H 2.980145388535029 -1.271954980817497 0.8977606950067116
