33

C -6.270064443830898 1.0972225800842637 -1.1933294488457342
C -5.684651786198589 -0.07505759335763428 -1.2921786758654366
C -5.152748099365161 -1.2361035900503872 -0.9520444185541189
C -4.99813938368016 -1.637680429559899 0.436214161446472
C -4.4420002895963595 -0.8661056877343173 1.3449108025437062
C -3.972063504667259 0.4283927237721693 0.928387465979917
C -2.7990222048030606 0.44181623962301975 0.3393946585003449
C -1.5663222253704778 0.3716339024772306 -0.13771524846975383
C -0.4965042643325154 0.4809200185450571 0.8404625813441908
C 0.8116710146170216 0.0375772988321343 0.2627823521746003
C 1.0227617681983212 -0.40189462412842214 -0.9613621699155752
C 2.438618773825077 -0.732989528529004 -1.1294091233683365
C 3.041905852221524 -0.42436887432533243 0.18115765898658964
C 4.4921062498006314 -0.6053214419973879 0.49511482031998627
C 5.269552117991676 -0.1991733692793477 -0.6696164951746351
C 6.529996933668569 0.09393237284202224 -0.4514946496138956
C 7.783006327943731 0.3703239813478744 -0.14859106349168635
C 2.0828118852412745 0.019653497941382117 0.9704207121515982
H -7.338720150578106 1.1800111313104396 -1.1739508325396968
H -5.671811508503986 1.9823590176657684 -1.1283190985343523
H -5.355545040058537 -2.6101678197008855 0.7307786339642194
H -4.358953667378191 -1.2325515795676363 2.368437232322848
H -4.414547468710486 1.3770299682644538 1.0185527679050261
H -1.5426058482550264 0.24243255921329301 -1.1832025187550705
H -0.378732936923534 1.5604294309390907 1.1111504618554493
H -0.7023475199856035 -0.046071275363680116 1.7988643823953092
H 0.29539459230957155 -0.5242638290769142 -1.7739766518149085
H 2.9362618217133 -0.26025126144945626 -1.9749416384386063
H 4.789952587464801 0.032265278445803694 1.3631996106106552
H 4.969120657025092 -0.10335349482026294 -1.6768293642491432
H 7.954398746177197 1.3800045807727066 0.11085415971859153
H 8.436771494128164 -0.45735237617548136 -0.20771053091206576
H 2.290449519897474 0.3167021930302939 2.008000499651534
