20

C 4.176169555494965 1.0210008943454048 0.2833413705887491
C 2.920484922099759 0.7108280956542514 0.5481740419278114
C 1.6830904155218265 0.35813076750964756 0.754211904067851
C 1.1466439589590158 -0.6630856949170644 -0.170907949108472
C -0.3034442844355217 -0.7737150292461239 -0.16814197273223871
C -0.8038848919168278 -1.958872994810875 0.07218568562388683
C -1.2503037439400395 -3.1638320013421275 0.33218667056305035
C -1.2838580468519118 0.2378737960436494 -0.39301917917483503
C -1.8348785643745604 0.837150017406161 0.6530787461443812
C -2.8512472943142995 1.8896320528967099 0.5639060748801756
H 4.888538309646427 0.4278153624133384 0.791040311427086
H 4.292966493867362 1.8195569090230161 -0.40074771925069314
H 1.1978904868245979 0.8373179852068827 1.5563837033298744
H 1.6766639556313918 -1.594129351090712 -0.006720043678874966
H -1.407875804704303 -3.3580437510454035 1.3583101287159074
H -1.3858465727345004 -3.7610454745197943 -0.5237614074071447
H -1.5716700836136694 0.5097846758783837 -1.4156670137348182
H -3.3349805269742383 1.9528619270165475 -0.4214956577931684
H -2.327422267303771 2.868654922919978 0.7604027489210181
H -3.6270360168819207 1.8021168906580727 1.3670982821151638
