17

C -2.9372243783999488 1.559857664147807 -0.07242045062041066
C -2.920072965637231 0.25123933590129377 -0.1658809633605089
C -2.8063443240252757 -1.0408957609477587 -0.25672934741346104
C -1.5404734427653515 -1.549918018497187 -0.7214534540141926
C -0.4223896479972112 -0.9388637978778067 -0.32067382685051493
C 0.8501446340052529 -1.431535269927566 -0.7732884045319758
C 2.0345878992276307 -0.9473740741432979 -0.47351756595471606
C 2.2079026855959065 0.19727173264373726 0.3916471387093197
C 3.413589850111019 0.6422456409914792 0.6601867350758596
H -2.62550228980549 1.9614043749268975 0.8643108234469201
H -3.2638466084595907 2.0561392919436705 -0.9569762035688919
H -3.678952480681528 -1.5848737739525587 0.028388464145114485
H -0.4433705768949921 -0.08157118487397379 0.3362653537937584
H 2.889310526057318 -1.4515150452829326 -0.9100188380314516
H 1.3644246897145658 0.6937274268291592 0.821598984474712
H 3.5808292613039874 1.4946425044016547 1.302180712900065
H 4.297387168650803 0.17001895371728623 0.24638084180038944
