22

C 3.0787842165788626 2.436784155931506 0.3136184010018033
C 2.8152751046469473 1.1472214667905969 0.30915977422398716
C 2.4680160444926544 -0.10783696482112388 0.22555294821145822
C 1.3377287113774334 -0.43893491851577615 -0.632863933360356
C 0.43513490315888415 -1.505615381710628 -0.05396369350959117
C -0.6702242134669073 -1.7477642196404897 -1.02241296009112
C -1.8711999603610914 -1.1645587064933185 -0.9070583762950489
C -2.19945127822836 -0.23546704639884253 0.18636447108160745
C -3.291609853327432 0.7381787599056564 -0.21419975129256733
H 3.763222838142212 2.7533044704365315 -0.4261797548384759
H 2.56366501390993 2.9864677994342723 1.0641862751394449
H 3.060395191995965 -0.762032627661274 0.804723573344636
H 0.726797556858571 0.4261958797289022 -0.8770154172714104
H 1.750806313154995 -0.865462272990443 -1.5886495848326236
H 1.0153524198934754 -2.437911417470909 0.10591780073926929
H 0.03399469076209391 -1.2044079520279516 0.936180609287881
H -0.5005435335001607 -2.4218196973635218 -1.8549634768793717
H -2.5356393730286197 -0.8542407865559789 1.0660081422761003
H -1.2886611246004753 0.31844020102595083 0.5295883100249021
H -2.859291975319231 1.6504022587385268 -0.6886433469635868
H -3.865755974206245 1.1056949574864132 0.6744590727563524
H -3.9667957189337057 0.1833620421710554 -0.9048883178479187
