27

C 5.270560608319134 -0.5744284221805271 2.066962407534668
C 4.240220539011626 0.24988190225207874 1.81654302686263
C 3.25882266996199 0.8945958975841923 1.1858453042816397
C 2.0350078716077515 0.09737988616624575 1.0850436766501999
C 0.7867708600185895 0.48910907573270845 1.6237317686702497
C -0.22438484071326473 -0.005823461948748623 0.6354960882922168
C -0.8734861891505142 0.2940712769070182 -0.36592330682189717
C -1.584216332186792 1.6642755240245866 -0.6238328002217928
C -2.125018933145821 2.676021079415351 -0.8255527593351527
C -2.7838221853862186 3.8818463135684214 -1.0882443329982683
C -0.7837567986668094 -0.5729762160840195 -1.5533238995785201
C -0.7367850881036668 -1.847293878279785 -1.2636642062773273
C -1.241171298766671 -3.0892487287086188 -0.8820543967081491
C -2.6636123928169755 -3.1930502159826313 -0.8797725036439313
H 5.1432313867393304 -0.8782294045959692 3.14812538570822
H 5.892914228804992 -0.9253019673763117 1.372858884746051
H 3.48214313240763 1.7918021843941465 0.7250845833608083
H 2.101843223920034 -0.8756121271626788 0.56705722635848
H 0.17968008065183388 0.8589089078454357 2.3140773321983805
H -2.91210371731849 4.042446466820351 -2.1851059557116153
H -2.2538083053954727 4.740857821162446 -0.5577401935375724
H -3.8394456991075256 3.8319487397292957 -0.6994942097030472
H -0.7397796503672452 -0.28659049639456374 -2.5336886768092413
H -0.3885198754737806 -3.631830522314637 -0.5991999988795108
H -2.989410011165789 -3.3159106812794907 -1.9587009300695555
H -3.067636440031942 -4.04148712862747 -0.3272013107552547
H -3.1842368452796435 -2.275361824869562 -0.46518891325410566
