17

C -3.1622981519092423 1.0341026389187236 -0.11219803995220853
C -2.6042567285308946 -0.16390531319175544 -0.1280188498361061
C -1.9767392591040458 -1.3014283261833124 -0.10305362115220604
C -0.6252280578888483 -1.2967288874162277 0.4975586447265261
C 0.32878253051741246 -1.2592178237792808 -0.6406422084109494
C 1.1473421807344268 -0.24475208044331076 -0.7478474960591691
C 1.929852874379199 0.78900136205108 -0.5221011248627249
C 3.1044342875547764 0.6861816994031925 0.3303958713407422
H -2.962629099042932 1.6190773015371431 -0.9691481325316073
H -3.728807683581041 1.236492010944683 0.7569006001933015
H -2.486490439159983 -2.1168190285908755 -0.5108486166845069
H -0.5079008033406649 -0.4838514387823976 1.2217566297353943
H -0.5000355034224567 -2.2551152319709327 1.086244001377421
H 1.6520615939761207 1.7065205461559516 -0.9936855055249121
H 4.035659366184511 0.9104717232294521 -0.2566738482404783
H 3.2610289496308447 -0.2929805217793688 0.7908777075839492
H 3.09522394300288 1.4329513698972254 1.1652287491989566
