20

C 6.087755263339776 0.6148693384161649 -0.36637556443885383
C 4.877792146396154 0.23452154511227877 -0.03578874972333991
C 3.7784710567444346 -0.11519943439086539 0.5290493768960841
C 2.693844636391935 -0.5795722366928477 1.0741879354877677
C 1.5377873102744568 -0.9437877303240221 0.2815319626356957
C 0.30333144823297487 -0.651803570426317 0.6332390632890589
C -0.8033439838756784 -0.003026527892325689 0.8099312449981031
C -1.8575933353101508 0.7373715287504028 0.8467089128804224
C -3.001868254576969 1.382581429919574 0.6670785675718017
C -4.274703454861654 0.7566854070246717 0.7323260339116535
C -4.411095855985251 -0.3045756728498475 -0.007788095787042097
C -4.753889388491194 -1.1134882070790164 -0.9702900337945167
H 6.411271427595065 1.6209139907545158 -0.12435165110579255
H 6.735655604291211 -0.08566191478322087 -0.8737474129851683
H 2.6581020408750744 -0.6952854400254386 2.1472019038976105
H 1.6588109033505691 -1.4875879797956313 -0.6594691190282015
H -2.846603193710201 2.457147224987029 0.46219161913574197
H -5.048846392089871 1.1409387009423198 1.3447306636067333
H -5.147153258475152 -0.8557476553390413 -1.917232359349199
H -4.597724720115312 -2.1092927963084294 -0.7143852708660948
