19

C -5.93250985873486 0.28258328150381795 0.31908011223019234
C -4.752536172231345 -0.2621680422811298 0.19490896174170036
C -3.5054454168415408 -0.6254428455842642 0.10117589536198718
C -2.247883523506467 -0.772596265100882 -0.12631169588626276
C -1.0239134154805138 -0.6367630462816681 -0.5427427735163068
C 0.2023630678328439 -0.35980945224565547 -0.8717177985557494
C 1.2416368795991837 -1.3447482934438684 -0.5293097503961631
C 2.281580445806734 -1.0221343522964024 0.21973859438607024
C 2.3837958305600213 0.3243031006960077 0.7018117678885814
C 3.4545044659806883 0.9944825196636298 0.36621583573241084
C 4.548363954666228 1.5861251891615438 -0.01858840117453125
H -6.672749701774539 -0.2363465276600377 0.9121247728813408
H -6.214370452552002 1.219835647541992 -0.13436402675448123
H 0.5071394164299675 0.5414423251050683 -1.3774559971818068
H 1.1623300277835045 -2.3658682226765086 -0.896023392358887
H 3.0046783226775755 -1.7619173812114568 0.4410465919424234
H 1.7002688873106062 0.856518774245112 1.3009218003029457
H 5.380078723886078 1.4732556191141013 0.6426730400883132
H 4.482668518588392 2.109247971750654 -0.9445924289325017
