15

C 1.9927905694021948 -1.811353686187016 0.09241653730309057
C 1.3150675003269732 -0.767155462397616 -0.3723582392447149
C 0.8474719070421018 0.2557720435720451 -0.9895464833862003
C -0.3971573786768374 0.8045142604042459 -0.5939238345515573
C -0.8003018570243815 1.8827896906587969 -1.310642780562973
C -1.2637768607979147 0.3692870918402572 0.44854548229910945
C -1.1598546444621287 -0.6159001081625106 1.2972087831993206
H 1.7472076360898483 -2.7049185423987225 -0.3971989715843067
H 2.644791070566509 -1.5485704197976884 0.8713851291299166
H 1.4735837977546395 0.6311097463678477 -1.7992094537519738
H -0.15008522968354765 2.2149341843761983 -2.097889120815892
H -1.7267558002830286 2.3544044059754103 -1.0754789917294676
H -2.2066849130841524 0.9997110998992347 0.5465951331400252
H -1.967441189409735 -0.7751630194129757 2.037437133384432
H -0.3488546077605582 -1.2894612847375069 1.3364926099505516
