25

C 5.710977226285214 0.286901602599314 0.9161472466699796
C 4.63738582938256 0.7297910299660715 1.4958560137845291
C 3.438554558431643 0.9814076936552246 2.001930131106867
C 2.4046396605585283 0.024300826605106057 1.7584583131078615
C 2.151342708711671 -0.23372192106355236 0.4923029796745531
C 1.8950375759058926 -0.3500815248436324 -0.7950889809086391
C 0.9408376660017086 0.5658392943934529 -1.3276682976810898
C -0.3414132361940337 0.39349587986235857 -1.0632460172426614
C -0.7820126272079468 -0.7436392160084977 -0.21947359710631356
C -2.2385865063990478 -0.9666728799907178 -0.3220418990117952
C -3.048395930738038 0.060142652983220746 -0.1698976365535276
C -4.4860692085203056 -0.13739955239136123 -0.2670233362839669
C -5.277793155098664 0.9028755404128399 -0.11165457019157732
H 6.383215244701328 -0.32734377593882236 1.4711272272273752
H 5.916306686071702 0.5309451263715197 -0.09961005957727567
H 1.7971455924040596 -0.5205259913531395 2.4269170646566205
H 2.447656039087129 -1.1215937642400091 -1.2536241688474052
H 1.1943558107985088 1.4275229844256654 -1.9580347872354613
H -1.1152828494856324 1.0521376123520811 -1.436366322816933
H -0.22681650857394203 -1.6851662952012008 -0.4868641298754535
H -2.6509907732447253 -1.9580047893566777 -0.519763460806422
H -2.6342217894375155 1.0599805622370069 0.029481421259872288
H -4.889181462189245 -1.1121451576567392 -0.4613715163014262
H -4.870398332872042 1.8757317039901968 0.08252514528281649
H -6.3562922183788935 0.7629207970076693 -0.1830167623323855
