22

C 3.711087315554048 1.561205502169553 -1.3778228892489728
C 2.8799377491370106 0.7286201465035945 -0.837929632774766
C 2.0743149142705977 -0.17851423249662565 -0.37683308419280187
C 1.3413550750838992 -1.0872629920076629 0.2016508727535707
C 1.8406795395784024 -1.7641635408317242 1.426346876238878
C 0.05953594741249287 -1.4525192878201885 -0.31552752086870983
C -0.9648401943329197 -0.8645442663216706 0.2474114261518862
C -1.9355906046978197 -0.1500462171199809 0.7836046491478145
C -2.2300789927425537 1.118843956389184 0.14153766655606925
C -3.401158897015034 0.9000946770712326 -0.8183397655849365
H 4.559234565356118 1.1805430378909094 -1.911837916722047
H 3.578352890307803 2.622165100425405 -1.3080176818290257
H 1.3126502514405138 -2.689734642848934 1.6541569600147075
H 2.91786009777645 -2.0309219467818185 1.2160351237536908
H 1.8939509088409492 -1.0571703356687914 2.295295878361853
H -0.20336937971450264 -2.1248888398859256 -1.0865251773889164
H -2.368786984083291 -0.612660764941931 1.6226584047133363
H -2.577954913603676 1.912415843243285 0.8540347343040731
H -1.368848119080508 1.5295498154880045 -0.3832061777594633
H -4.362620735280714 1.140429819414852 -0.29817739004233
H -3.2913729099285574 1.4922548920012861 -1.7403986985306206
H -3.46433752427878 -0.1736957238723515 -1.090477668467521
