17

C 4.39996518067241 -0.3527902825432903 0.2997897700299635
C 3.089593792293265 -0.4432511985439467 0.28917300111031885
C 1.8061095265652765 -0.49794763563053696 0.4243098642092658
C 0.5553772675445132 -0.17350616938059082 0.6750721235362485
C -0.1763677431203278 0.8396896158346426 -0.11178413394051775
C -0.9931842515442528 0.2748377730667388 -1.1887436818247448
C -2.288237197858624 0.10280947450190163 -1.1704750302792197
C -3.15195019490074 0.4668953434611509 -0.016218950348715268
H 4.919479397625944 0.5936800275450275 0.22843343058485213
H 5.027984148611295 -1.2300769163258567 0.38128837545396754
H 0.020630981161809916 -0.6543844231170377 1.4847955357522429
H -0.7927503017767739 1.4931334345620655 0.536610693532996
H 0.5950769105951582 1.5047183998884561 -0.599334707923927
H -2.7720100043662232 -0.32801087090358244 -2.037957199342338
H -4.193437349366804 0.6613382581651308 -0.3709733438491011
H -3.21636513420647 -0.4004993525072022 0.6881062413981672
H -2.829915027929397 1.3978222697275733 0.4879080119004459
