31

C -2.7456132169526586 3.4347792309823926 0.684664238894471
C -2.759261798497688 2.1543204905371067 0.9836176250796023
C -2.73332237000705 0.8605856691147349 1.1827713906312314
C -2.2593095537519066 0.02975459308408735 0.09080723253213377
C -1.2422138238639366 0.6932927146765329 -0.7048869226803938
C 0.0584883007844272 0.5204396667564007 -0.8725730066870968
C 0.9747919436169935 1.2691767835215177 -1.715019620664532
C 2.166374855948585 0.7206981318475298 -1.54411012231779
C 2.1005876705351714 -0.3906513045533666 -0.6036983917410119
C 3.181799192853122 -1.2236360783626967 -0.16965890790978486
C 4.059817338776372 -0.6681891733291992 0.6322027769106208
C 4.890432218264129 -0.034264329910393736 1.431819336161329
C 0.8464859017264673 -0.5099632554485546 -0.20402282037089345
C 0.4240244595440687 -1.5400846883805037 0.7543390892309957
C -0.8529222375029173 -1.86510860611386 0.9381797445611044
C -2.1100967941513784 -1.4057884263195577 0.36101227143127995
C -2.3402782051072695 -2.1711774306144678 -0.9471152069204396
H -1.8428088633617545 3.9315420003250785 0.9215007477330968
H -3.641401831463306 3.7916954750113545 0.24676260226661767
H -3.0735985641552057 0.5711964208832564 2.1504077558275427
H -1.6171604474104375 1.5231955077526964 -1.3056304898454896
H 0.6780754677441337 2.100538146396567 -2.33564451255985
H 3.0773635402503454 1.036720340359343 -2.025265877286594
H 3.383985498215114 -2.2329015760220847 -0.39985111971616977
H 4.647326935765591 -0.10051172430224085 2.4586492034242298
H 5.687477795513563 0.45536080174843296 0.934769321416022
H 1.1799146924876658 -2.048056539211204 1.326870572066765
H -2.9320916483114083 -1.7270255363335756 1.0354628887885726
H -2.09580648426836 -3.235861046727498 -0.7561418253274194
H -1.6887196342264836 -1.7934049764579396 -1.751611442095885
H -3.4223403389945113 -2.1466712809094575 -1.2042649448659157
