21

C 3.2073962949014514 0.17824011504863357 1.5204104409772663
C 2.51451510129142 0.889227496781361 0.6836527678734595
C 1.788046129468326 1.4320166458639614 -0.2808571574321621
C 1.621506366033072 0.5666118510363329 -1.502865755967432
C 0.834980026005254 -0.6482846761834745 -1.0155080034803117
C -0.48000090846095106 -0.23388056671204013 -0.4663457274965933
C -1.5682464986549134 -0.6890641722437741 -1.000645454801718
C -2.8933233089577985 -0.34511904027978685 -0.5385039736054368
C -2.9865367155604043 0.036822002238205136 0.7061374394801141
C -2.9951554752058795 0.4105464588544394 1.9735377959493337
H 2.744677380943367 -0.49030138672875595 2.2124987099846973
H 4.271844270871862 0.2692615157372609 1.5067827180435405
H 1.02264722194505 1.0793435246905443 -2.2731862823322957
H 2.5947992974619405 0.2104565165806048 -1.8778264047505098
H 0.7455800892175619 -1.429292250609913 -1.7654144877308497
H 1.4236404722486402 -1.0264534958062392 -0.12681478015755618
H -0.5265293852375983 0.4513325467550615 0.3840085736357704
H -1.5232638779602967 -1.3719604519806545 -1.847862796080472
H -3.8018550092304073 -0.36021968786273173 -1.0718571804705528
H -2.854210954398246 1.44927499872604 2.120653336476584
H -3.1405105167206764 -0.3785579439051071 2.6600062218850944
