22

C 3.7666201436384976 1.5662310452474457 -0.66231360867771
C 3.0469532102459644 0.7498659810476805 0.07687634063327312
C 2.3312776716633987 -0.10774394928437869 0.7508358339307157
C 1.9039266563852626 -1.2796462363532606 0.03234235718557075
C 0.6533017462127597 -1.7113410888046252 0.021515969599916713
C -0.35788176717730336 -0.9530480296007289 0.7854381183991317
C -1.4767422576786846 -0.4270726910325938 -0.09648024551975415
C -2.428493329860653 0.3239250641251924 0.8284394286903776
C -3.5783586076275036 0.8804277125678167 0.01072375164683682
H 4.8067611026478705 1.38539196813064 -0.6431491787921471
H 3.1996690369685896 2.3019192313533376 -1.1830009771103374
H 2.145878599698006 0.16106878544754805 1.759558687925839
H 2.6789116730468105 -1.8247546505729 -0.527956958039019
H 0.4026877484706038 -2.585972268272581 -0.5305964158617191
H -0.8201525657410071 -1.595154856804197 1.5668482918438196
H 0.09276039909211883 -0.06691724409759818 1.277545873889213
H -1.9851708199940752 -1.2589772214482118 -0.6243592699603042
H -1.0293889096467137 0.2954483630207876 -0.8049344858336254
H -1.8396199741840054 1.1713949469851501 1.2524020594971181
H -3.9970002509109595 0.018426673001783606 -0.5655569477271642
H -4.3453196780876775 1.2883464516096335 0.7110070566950416
H -3.1706198271612105 1.6681820137340806 -0.6533745989513238
