51

C 8.380054110406261 1.7372050749703767 -0.7540742643266601
C 7.436410895219086 2.3759173424144056 -0.09156760806368368
C 6.478389044588471 2.931702028172142 0.6134505289041909
C 5.799643946577055 2.0866105611609878 1.5450693937112008
C 5.339146749653674 0.8854196799647097 1.2100923524126765
C 4.637316808708358 0.004412699731332972 2.1623536074904295
C 3.2520037767703727 -0.290242064197044 1.6656936513399971
C 2.796010114311562 0.19800668793515072 0.5393488513359836
C 1.429975006598322 -0.14319724266289113 0.1329358050547693
C 0.9790919805714291 0.36221916922884567 -1.018035106343421
C -0.36016876084290456 0.09102658202474162 -1.5206732822363802
C -0.8080753331657038 0.6811883814612592 -2.808941071398412
C -1.1160618883539024 -0.6836952741633945 -0.7815906904961037
C -0.7488053639725898 -1.2851674124674288 0.46816709655639716
C -1.5015689396430292 -2.0668048723702057 1.2207583347749658
C -2.844917860766689 -2.419816725851738 0.8536316120014018
C -3.529409536298308 -3.235203230398548 1.6770205262277873
C -3.5663174305104364 -1.9807522821034698 -0.3511657279142648
C -3.8378049327590538 -0.49870104847825447 -0.31506075077258444
C -4.64964174522775 -0.08920861408432866 0.8307163499526852
C -5.7299850029300625 0.5081703581414413 0.37346518845777676
C -5.706642341101755 0.5340861931622618 -1.08382735863656
C -6.776744431491807 1.136708154772187 -1.9491473055275772
C -4.602976207503083 -0.052858400981609405 -1.4983094807138744
C 0.6179542860748064 -1.009495310743234 0.9829810625655753
H 9.329800493261233 1.7636651664957916 -0.291770345872164
H 8.052139397493626 1.2887606482108014 -1.6533235664505006
H 6.325250127018564 3.9559272518494257 0.3998812187042722
H 5.638456030715977 2.4046504498184316 2.565300161569336
H 5.491149139084673 0.5507246879602754 0.19442408215893775
H 5.1933672187966975 -0.974028459415768 2.1828768898620665
H 4.61904410651682 0.4762272794974056 3.1528414612485784
H 2.65731898027053 -0.9269531419036996 2.291936963011008
H 3.4245229882935058 0.8459766844690243 -0.08144920389928799
H 1.6581478165596397 1.006069796814238 -1.5962337099442594
H -1.8690044988057117 1.0029961280552357 -2.7520454838465205
H -0.8021182869790796 -0.16864060732544076 -3.548827824108061
H -0.12888683081712932 1.473616879161857 -3.1254193945574085
H -1.1143569295622073 -2.4761586997118092 2.165775921093318
H -3.0937056320346166 -3.6207355173507283 2.5911312717121677
H -4.538119491882347 -3.540743033213435 1.4657016161211054
H -4.529881532456423 -2.5331162442622217 -0.4877565836675071
H -2.9979630025452577 -2.1751532784763596 -1.2875598525387755
H -4.4212137712992385 -0.2404542704910947 1.8695814930738404
H -6.5090382010331655 0.9133537229659004 1.0112769833843618
H -6.31153622140387 1.683332495266783 -2.8206767165235447
H -7.279462308838646 1.9195881626949458 -1.3547306247680675
H -7.453142007251557 0.36045840956396585 -2.3338091891059727
H -4.327853115306006 -0.1739209218069579 -2.5560112654899183
H 0.5074964321249575 -0.5982760206250933 2.0141159894842375
H 1.112712155172027 -1.994698002875389 1.1087871812052787
