27

C 4.8633284301426105 -1.3988214634011855 1.041283724903163
C 4.280288132007346 -0.3119161906120311 0.6128989626041305
C 3.656964514933203 0.7749300348124679 0.26253320876047553
C 2.754713726062711 1.3657993377138526 1.26179115338264
C 1.3388844174782641 0.9220796433645405 0.9701881907280933
C 0.6207283030307429 1.4889780854428365 0.07411361943478198
C -0.6874394141757273 1.3180959355929103 -0.4210424743849708
C -1.6032944350734042 0.4641868853944757 -0.07359415907635392
C -1.6858897718714787 -0.5692591130852086 0.862096382414272
C -2.827218597250536 -1.2590757045850456 0.8368236828334095
C -3.9370256672368393 -1.9401492668686293 0.6830224522574297
C -3.8857088216356988 -3.0416297449265195 -0.27613096714953034
C -1.1165194744459372 2.246991417704822 -1.5142285813327518
C -0.25375122695425967 3.139453896901166 -1.9230898770059968
H 4.342509788783514 -2.297400187891689 0.8482923995593731
H 5.79433719962315 -1.2409924930059288 1.5341996846961707
H 3.8696935339387375 1.1179610191134202 -0.7124196426781451
H 2.8323655193923125 2.455222774101011 1.2028931751428633
H 0.9937411491527898 0.10797104467914861 1.5654165615746474
H -1.0419075141968408 -0.9476895350566188 1.608656526875153
H -4.7429492087803755 -1.6031291652024278 1.278788087999243
H -3.031061161247455 -3.6958581843460827 -0.05211503543639982
H -4.8248792477079085 -3.6526328808684108 -0.13316482639810565
H -3.871581347241247 -2.6718821732118516 -1.3338691741120752
H -2.089156398898627 2.1992512416625676 -1.9616053759918852
H 0.7210927170247926 3.178913599308034 -1.4699922841002484
H -0.47026514482261095 3.8506011871712493 -2.7038911888104114
