29

C 6.148663158465146 0.7859979432017732 0.5206859766195016
C 4.979591484583443 0.26649267235263524 0.23190091515322966
C 3.7725909337967583 -0.22891651232323365 0.030614094194243505
C 2.8521500876603763 -0.11871959103307932 1.1105687187421471
C 1.7527683052626306 0.5621574845154148 0.8758475876615922
C 0.6120669875146801 1.104450458873675 0.4903609567720177
C -0.38330375684846857 0.2572991703364412 -0.05564949971262114
C -0.006291805274372465 -0.704879849381607 -0.8464487617679232
C 0.44800802714816806 -1.6443761911781476 -1.6320348605756514
C -1.8391764096197356 0.30489996868751573 0.14617465812441377
C -2.5495868818619796 1.1002552950375217 -0.8534057953280609
C -3.412954074246059 1.971480220397726 -0.3935551401949476
C -4.259923025464135 2.8209061636363004 0.1514496599294514
C -2.4549479768083478 -1.0362620199025734 0.24840644592281963
C -2.6959388066778267 -2.10814352739899 1.020048098835817
C -3.2209142743896875 -2.156248055417417 -0.35780025059907006
H 6.249814122919212 1.811971968689274 0.28171332382637165
H 6.837590504946254 0.1051621339976953 0.9574188583934176
H 3.647597462184646 -0.652327493268737 -0.9307978880471521
H 2.9012377540428003 -0.503959024341786 2.101534479828089
H 0.6158541908339786 2.1545537512562034 0.6572686033237166
H 0.5145470265312044 -1.3730508384269742 -2.648043677327943
H 0.6859014737232518 -2.549172872540196 -1.1350893635893002
H -2.4701419637866606 1.0775363347053033 -1.9042533183867223
H -5.23409204996464 2.434563708546271 0.294400321756789
H -3.846405623449602 3.769598944374146 0.3702097435869465
H -2.615716789415046 -2.6532335226056634 1.9695091124763895
H -2.718732409625076 -2.7769428941467904 -1.1310994008046296
H -4.310255672179913 -2.0210938266427414 -0.45528536274437703
