19

C 3.674597518220051 0.1126565372298078 -0.21552330129327527
C 2.4871898682192626 -0.2890280454571339 0.12069948438044213
C 1.268849170922984 -0.6840514339567765 0.31033782712923863
C 0.21864268094820488 -0.21815752701761365 -0.5779698632989443
C -1.15038968168042 -0.3464180653223503 -0.05412178615540066
C -1.950251106838374 -1.6081982945250148 -0.1586770076571624
C -1.7144377181773736 0.6924705482950853 0.5394163606022576
C -0.9548902564450823 1.9621815912340672 0.6634582630171956
H 4.268888620825406 -0.4381728542385131 -0.8763034985912852
H 4.024983346885864 1.0092584316477289 0.1926328280182088
H 1.0622989634934927 -1.3344433438504568 1.10262872606669
H 0.3500641727326163 -0.7092146380788747 -1.5648204006679336
H -1.438973577100119 -2.395650478030466 -0.7097395841858639
H -2.144530052612182 -1.9853323749580134 0.8672577040971757
H -2.943716533129576 -1.34676116127855 -0.584118172767399
H -2.732035558249131 0.6359859209343873 0.942215578681516
H -1.33138357310242 2.7142515166022183 -0.07324289040721217
H -1.1190574387856558 2.4254925490803294 1.6630349118767602
H 0.1241511538725043 1.8031311216900636 0.5222703665374586
