32

C -4.304330519693748 2.713292965979709 -0.0765928695745871
C -3.5635669405828354 1.8848787299921497 -0.7919548529574423
C -2.7746755955968654 1.0490304659603842 -1.4276296151663743
C -1.6832539961690594 0.5092260650220468 -0.6724063397566878
C -0.5550979173062566 1.20604231060776 -0.4138109592937166
C 0.37873262362185295 0.4001545123034204 0.3754944291650835
C 1.7000324135549874 0.2173009881086336 -0.24014477898125686
C 2.753122241066069 0.05296922137070216 0.5368516681667987
C 4.08345312037027 -0.13124665396412297 -0.07547974074855829
C 5.00434884925637 0.985757782366664 0.3897881196613258
C -0.35146803915189473 -0.8763340015802817 0.5515568125625321
C 0.22119436902144324 -2.0308227354403847 1.3103448413039271
C -1.5341061022829279 -0.793051744841116 -0.058085218500634354
C -2.4707182709132804 -1.901772419412812 -0.05219072953678581
C -3.629641243941742 -1.825090461932512 -0.6475672134335873
H -3.9896250251970926 3.720794575558174 -0.12026459331906686
H -5.102346213131445 2.2474424745015273 0.43489909432313234
H -3.048446864165131 0.8768733356992103 -2.432505353401162
H -0.36964050918330454 2.2173859167648504 -0.7444018470136684
H 1.7852563846004623 0.22045559551520288 -1.2998048124006258
H 2.6624174105590663 0.05008230775997152 1.6321146520686276
H 4.493700093488567 -1.1023748469307593 0.24057282158361043
H 4.018607885835192 -0.10319296850871977 -1.1746868066323597
H 5.931242623498694 0.5491175337685298 0.8089438516396944
H 5.185681921050289 1.6897019764712893 -0.4334299706071183
H 4.508805401097807 1.5665337579614929 1.2032583124775538
H -0.5766525981884829 -2.578165682449473 1.8530157261639693
H 0.9403515438465712 -1.6809539583982085 2.0657092390101552
H 0.771880207079978 -2.664307068769943 0.5911050535379383
H -2.215872450697478 -2.839733008175718 0.4619669967157384
H -4.304687369071041 -2.667455387476387 -0.6253069790415543
H -3.9646974326751874 -0.9625395778313189 -1.169358938014815
