21

C 3.634153966690086 0.9169604399470418 0.9842916159966568
C 3.1740250192549144 0.07038525488548385 0.0860524831701123
C 2.625098153446779 -0.770129901483506 -0.7663746306386373
C 1.2264632246215912 -1.1070653406346178 -0.5327564188615275
C 0.5181701743082465 -0.05094317343803646 0.2757959421017119
C -0.8847679969936905 -0.4465219948423883 0.4776538388137966
C -1.8450062992697198 0.3399308212998865 0.023202537421105774
C -3.255626486226628 0.004958350006903411 0.19097347124603348
C -4.1834340713926865 0.8068362568665723 -0.2716253461395482
H 3.516837883295077 1.9338730001198248 0.7296538815474657
H 4.058143704465066 0.45438934693552496 1.8397174532191056
H 3.2832066543678096 -1.0976010170289165 -1.5241285061472292
H 1.1488078545251825 -2.0930104321663467 -0.027301671389197393
H 0.6759071727731675 -1.2234614369209598 -1.5009820775203349
H 0.5938407722894825 0.9235738189700011 -0.24835325095315988
H 1.0588644029093783 0.07108802942837451 1.23585922379071
H -1.1229207813052922 -1.3565631146653778 0.9844183013391262
H -1.585088600228276 1.247203603763736 -0.4816883877633453
H -3.5214377132796617 -0.9055874104512238 0.6975692252249186
H -3.895082103591625 1.7109513006789516 -0.7742875314411971
H -5.220154930659579 0.570733598729314 -0.15405720755748797
