28

C 6.167313411777389 0.09319930291904004 -0.2821999185589244
C 4.870693356710942 -0.13450623746610493 -0.26869834329764924
C 3.5917603705735908 -0.3722037700451668 -0.17474148286841582
C 3.0992326020358965 -0.6776980544586028 1.1502120841222556
C 1.9812731106734787 -0.1035143485427584 1.5542821924053878
C 1.2284977370895096 0.8078645524105275 0.748649956959225
C -0.07400988216846571 0.5710811565518741 0.6975398004909211
C -1.335864494740734 0.24558661874978963 0.7197916607448075
C -2.1077508537729783 0.8678264589912306 1.7812458274913265
C -1.7375421325521525 -0.667196790982847 -0.30109188950470916
C -2.7973420731757277 -0.3652195101772719 -1.0685759232393357
C -3.4448646731491412 -1.0563764988953204 -2.159778304273305
C -4.314854768815296 -0.09097574324070813 -2.279921241058478
C -3.761733909415023 0.7188624384245935 -1.191851346814061
H 6.761926151361497 -0.7675783935647678 -0.4416978545823508
H 6.43630836391128 1.105627823517339 -0.13092082978402525
H 3.058807804299495 -0.31414684595358483 -1.0819703638631453
H 3.6202090161537166 -1.3570061500442487 1.807522372725518
H 1.6160294861231326 -0.33085670121226013 2.538469989505472
H 1.504284488494164 1.640807134508398 0.18002004805971664
H -2.2567895534197295 1.9440349779701205 1.5181924242690474
H -1.5292275718888444 0.8109990895699095 2.7269551875565976
H -3.0745986213190672 0.36092679218974916 1.98600196720149
H -1.2221522497571704 -1.5774323277961575 -0.47034946726439725
H -3.2938424006955738 -2.0037532243020126 -2.693077696585761
H -5.166298156373019 0.021320690832459393 -2.9891370291591435
H -3.3215624505108514 1.690507515958656 -1.5055743488590612
H -4.497902107449785 0.8290405816027331 -0.3692974718185635
