40

C 6.562337313460055 -0.057058930605801 0.3522231935377572
C 5.347132478349451 0.15821687756931285 -0.11301938681799144
C 4.112495364938136 0.2767029700251278 -0.5542278273252107
C 3.2731792229191354 -0.909133856014695 -0.4591456086197555
C 3.6564325247876566 -1.8483474832666626 0.572667986115414
C 2.6266153921186257 -2.054852329977134 1.3642246158099933
C 1.4873571232403229 -1.2492730570231774 0.892546818632148
C 1.840663729004711 -0.5706389674211666 -0.16756954862035447
C 0.957762668787791 0.3967767282138263 -0.9006169503777747
C -0.4027636802372711 0.38015856445523993 -0.45367310341770073
C -0.6990986398198372 -0.3954080151864688 0.7403255366242651
C 0.106192882177999 -1.1727812399743875 1.4199873930382143
C -2.1518270322107576 -0.05263842512542573 1.0192888289071291
C -2.944419808807146 -0.7921256119140836 0.006231380754945712
C -3.8010619340671643 -1.7125714003203545 0.41525149377292886
C -4.601995871548477 -2.4659516491393463 -0.5326542161747452
C -5.4529762056423605 -3.3803387545727777 -0.12603098250564998
C -2.1394265659921157 1.4029171416351374 0.6198749949075997
C -1.1302747096098482 1.6464604522524333 -0.22732871478987185
C -0.8587757510237688 2.9920130510821927 -0.7958527075888755
C -0.3595196015898478 4.104146458700449 0.0455400009868637
C -1.790921845622646 4.091372261894343 -0.36318347146477425
H 7.249937774208118 -0.40201227740245554 -0.37274997830276085
H 6.675098223371167 0.14512701667987132 1.383081493409698
H 3.8851373661254134 1.2375479494118793 -0.9283861868138306
H 4.612682231633815 -2.361953972222366 0.7584712335755165
H 2.579458177588295 -2.6981841503101394 2.2264885968005483
H 1.0666419383203183 0.12072971940262323 -1.9963319941361057
H 1.4944300398591985 1.3857241666346563 -0.8075673305586091
H -0.18860538980066105 -1.7268712381339015 2.3010313834276923
H -2.837006915511769 -0.5957905592741132 -1.049377261403153
H -3.92376943010861 -1.9246513026648422 1.4694547707122263
H -4.483996335044601 -2.259033851747992 -1.5833881025543057
H -5.5973089521500965 -3.6140110438962774 0.9180701763693397
H -6.0506240798865845 -3.9430429004569993 -0.82667072210366
H -2.8858777995239704 2.0791627064237037 1.0167090166816521
H -0.5117548943153324 3.0364832772142933 -1.8599301790424818
H -0.07801251976643585 3.9640738740655346 1.0924492745959191
H -2.5079927873242385 3.9742911390424562 0.4490996960119901
H -2.135543701286029 4.7947666619480795 -1.1560944172275245
