25

C 3.9213182061963763 -2.2632214327357665 3.9043135142330674
C 2.9769654414275446 -2.171597876865523 2.998488714151446
C 2.1626132108281397 -1.9356196255565257 2.0355817800231573
C 1.3921111375105903 -2.006982654763643 1.004513546488871
C 0.5799510006569046 -2.1843127114197944 0.009373039299497746
C 0.20762671144330608 -0.9547238235062655 -0.7478468738172108
C 0.9788387331622562 -0.7028817661628984 -1.97794124280336
C -0.7423387004893975 -0.2621558008984813 -0.23504264800060753
C -1.3614626477342988 0.932599480085291 -0.6441455533472895
C -0.9239449121410792 1.473864725861197 -1.7400166673747828
C -0.554200789776176 2.0467166791161757 -2.8730303907245007
C -2.427230754886655 1.6214326823581098 0.01930543982164264
C -3.246536657699801 1.5597921551651526 1.1204076233184488
C -3.4282019124523155 2.6855555882122317 0.22534007234189432
H 3.6670726151604813 -2.3911452206185624 4.962337431470904
H 4.953970325913738 -2.2143767863477017 3.623280748835281
H 0.17495813995822737 -3.121920526970897 -0.2918827703196525
H 1.5110870395038278 0.2718137380285604 -1.9522623873458942
H 0.3372576115557838 -0.6830430828893636 -2.895080972625671
H 1.6808950472825983 -1.5430515898905357 -2.1552740643731214
H 0.22091281155496004 2.748173585722259 -2.7364067035405517
H -1.0779932478235903 1.721087879034924 -3.7258350961226436
H -3.5578026654662156 1.0481122675978944 2.0269022269877217
H -3.1283139262874085 3.699817356401047 0.5058918770395026
H -4.317551817383896 2.626066761041953 -0.46097064361935897
