40

C -3.542758841819884 -3.737917265717553 0.6078965149024493
C -3.2490341153030795 -2.9011724966675807 -0.358419055805408
C -2.983924428106877 -1.9995767346632307 -1.2848157632695532
C -3.3917516714987803 -0.6833385679693152 -1.025287218558033
C -2.830470968575635 0.38090663551285214 -0.655415975946478
C -1.5635138524356054 0.9014514521598698 -0.2962648837700916
C -1.6285169030037716 2.2381409336014455 0.029988098603951237
C -2.9512548796786673 2.943730787662014 -0.02920781070025131
C -3.1569494810084078 3.820822446474846 1.1444607050036855
C -4.209047835760541 3.646383425473651 1.9255731762043549
C -0.23782138964324304 0.30839024748160937 -0.2081394000351001
C 0.8120418970412605 1.0851883264440465 0.17673926670413737
C 2.119210465948124 0.6069598134037794 0.29057570748834566
C 3.2756780807879906 1.2760244396699434 0.6672516336126539
C 4.288819851811457 0.3568598676955548 0.6165811059972058
C 3.7153513516431254 -0.9459990698711854 0.18422479675382583
C 4.457385486253639 -2.146852006351506 0.013648793189075494
C 5.601169397914852 -2.0508431170675334 -0.630813470542024
C 6.7285196876392215 -1.8546382733021185 -1.2859624930675797
C 2.4049563154409843 -0.7804300497629006 -0.009006626415972795
C 1.3015581914488061 -1.5971323707760279 -0.41355287139602975
C 0.06655486036945023 -1.0772997025395887 -0.5038318445650682
H -2.790557336376517 -3.8395476233628747 1.3459525080024097
H -4.492882988400293 -4.1969289225540924 0.518063728903522
H -2.4844318853195135 -2.4180831042949036 -2.1424144926900515
H -4.55155195934101 -0.526122111432008 -1.1938589241573914
H -3.6460219369452624 1.278448592872223 -0.5749680343269363
H -0.8135810852297206 2.802327310511534 0.3190033771888954
H -3.1152146813672754 3.433988943713517 -0.9932330611916247
H -2.450579542687015 4.596025762882554 1.3573792761205954
H -4.9133638545350875 2.8632467978217018 1.701856994687264
H -4.348411734790198 4.2916605967906785 2.7779508900928107
H 0.5890565241866879 2.151184207637588 0.40614233542307543
H 3.4432276304509317 2.3048447840600024 0.9574747195864012
H 5.302438683228555 0.5854715153641286 0.8562489272101099
H 4.233305027291576 -3.135192407834173 0.329877632230734
H 7.556042682277094 -1.6268486943718619 -0.6687719686571763
H 6.644518554084918 -1.9522484645555709 -2.335078888700021
H 1.496025074009337 -2.6481614855155358 -0.6443683453410516
H -0.6842183900015758 -1.7537244186237337 -0.8095999062293664
