27

C -5.762982784842155 -0.21264155337130142 -0.24440702548143659
C -4.675360736460708 0.4096641024276222 0.1493699669299886
C -3.5510048525698994 1.0081604639544328 0.4587555635198145
C -2.4952822370523298 0.9747313664451154 -0.5522312083857128
C -1.4196611262372754 0.036077156439924214 -0.16119459127037383
C -1.7640326312158843 -1.021001571832898 0.8224560978637874
C -0.19958051220590148 0.1278983592926357 -0.6622514610098249
C 0.7967652918198727 -0.8126761706483842 -0.2419577074892619
C 1.8886071797481427 -0.30232376622937185 0.2517331932781101
C 2.992951086165655 0.28758032950152107 0.6228157279046102
C 3.970485390108478 0.5881745550734796 -0.4075153338416685
C 5.252838314204015 -0.1853723041511906 -0.06751329819688201
H -5.7927694470027635 -1.2405126266912758 -0.0012814189375365955
H -6.459376939718926 0.39916020080446196 -0.7512987882504966
H -3.5421467926700365 1.4498334660126084 1.41637988378433
H -2.134546967215811 1.9722645055710477 -0.8325194375624128
H -1.831639455521525 -0.5083906124099551 1.8255803652153546
H -0.9533092412366602 -1.7698109556048423 0.9052115704111453
H -2.728978082847959 -1.5040565687957044 0.5989532840987959
H -0.004813514672878798 0.925156086385425 -1.3814280053178445
H 0.7853642138676228 -1.864856669687647 -0.2713187733950311
H 3.044652343825374 0.4822184422530957 1.65517935131713
H 4.273182054147108 1.6620289749671266 -0.40644621138470394
H 3.663806349356976 0.3171000621531513 -1.4074171308525787
H 5.723765053023883 -0.6108082073534509 -0.9610222585232928
H 4.998799253487797 -1.058635631819104 0.5995177128093802
H 5.924268791715775 0.45103856731352104 0.5370765088911281
