22

C -4.500507854015389 -0.10724137281755099 3.6674632640447102
C -3.7696928947155386 -0.10905591447947097 2.5702908678650016
C -2.9878948576313875 -0.28338294109531426 1.5082232635080102
C -2.5008550278421757 -1.5880060466983699 1.247843122663313
C -1.577249861924226 -1.8353161439542867 0.3718297551507402
C -0.9596095907458593 -0.7875945981157596 -0.43164394224850194
C -0.4144645127037951 0.10306576970498882 -1.1164784705772517
C 0.20681681056340828 1.0991220969574131 -1.8594122644352005
C 1.5304022987457058 1.1807801733594874 -1.899757714953609
C 2.717004193723389 1.0482320984546059 -2.379303978092538
C 3.955462858306875 0.7060796087886708 -2.6204831967479176
C 5.018461225810972 0.8105531410341458 -1.5893951202089798
H -3.9568114354118635 -0.1916018652855941 4.567039793112922
H -5.534094361064312 -0.027422054659852077 3.4612590945041717
H -2.8524894256684483 0.6388468738525154 1.0058975666144794
H -2.9165444629084725 -2.457331636579471 1.796975404880934
H -1.2439738655927681 -2.845225163048673 0.20922395640210853
H -0.3467686132511344 1.8600189026924603 -2.445078649042324
H 4.240358298360459 0.3269237549040953 -3.596140298464757
H 4.578286607152798 0.6302176546867555 -0.5877042583734564
H 5.786615883970269 0.014894483121552334 -1.7497053373952967
H 5.527548586821391 1.8134431791866639 -1.643691514458375
