14

C 2.795840121018686 0.3295121527620106 0.09299169132804885
C 1.6923853128881732 -0.3478793225281666 0.3383036331177786
C 0.5571566486814755 -0.9819661398849703 0.5036950622880737
C -0.44028998550108195 -0.8170754363331414 -0.5488247870487815
C -1.8315154811908865 -1.1832494026593583 -0.22072882795247686
C -1.5069223551162356 0.23647598698686242 -0.2704020162693544
C -1.7637703482492197 1.5415487468894966 -0.18218740458532817
H 3.5221154710415528 -0.20847929423406159 -0.4493319622666603
H 2.7989337029101375 1.314465688071549 0.47192450033307193
H 0.5022024352065981 -1.5461903184898522 1.396812830272724
H -0.06358415423608231 -0.837600296826099 -1.5894708893299692
H -2.4699696156005304 -1.6653527348823562 -0.9872656030569442
H -1.0225479728140772 2.3135171838363626 -0.34537960678692664
H -2.7700337790384753 1.8522731872916824 0.06673056872789856
