20

C -3.268559536052928 -1.5081059225486162 0.4121171487930587
C -3.2111417755762712 -0.202195788140677 0.26818473033377793
C -3.0761843226596866 1.089659876543438 0.08999444090461786
C -1.8469488430279073 1.524078038183527 -0.5699749598323596
C -0.8434681796948407 1.8423008830400411 0.4724452795920081
C -0.03949868815495448 0.8680924037654637 0.8717269754061967
C 0.9812451243405448 0.03742932328247265 0.9980793986011655
C 2.040457432156138 0.02274948758455781 -0.060180444399057495
C 2.7267702498087925 -1.2828126804078577 -0.1261033071278292
C 4.036978561979177 -1.3652154582836742 0.0813915775689525
H -3.723716050147372 -2.019776013372663 -0.4010789110957629
H -2.855198239857384 -1.8740449382792266 1.313500445183444
H -3.887005571263595 1.6662005931869797 0.45195725248128926
H -2.025404317521858 2.35574369188442 -1.2631237007809284
H -0.6995511697023031 2.790123751533122 0.9377689705531489
H 1.597280210333037 0.2421522055378481 -1.0735048564582836
H 2.7664500587845686 0.8091648778488914 0.23173022915779423
H 2.161012291827609 -2.1764487355385067 -0.3442204455402682
H 4.5396304880579015 -2.332631274506765 0.03155264836209772
H 4.626852276371032 -0.4864643213127165 0.30148981274151654
