35

C -5.328949952829101 -0.06040490640425127 0.28240332862333095
C -4.388849227419493 -0.05574860180527757 -0.6358472209924156
C -3.40461390382415 -0.07862484439190462 -1.4837996072088337
C -2.0701121412589827 -0.1587399235961201 -0.9723695237701814
C -1.082845578557003 -0.18167010487286317 -1.8266401313424918
C -1.8274127828141231 -0.20011806134167537 0.4785150081226969
C -0.43953658191382056 -0.16426506462940993 0.830985410793076
C 0.2955480296015398 1.0760524439605428 0.5577430843680818
C 1.57130756144079 0.7837458754393015 0.5015168125760893
C 2.698273597382615 1.7172626638937871 0.24881902342144427
C 2.4723923994382573 2.99349284132396 0.050119930001637836
C 3.6028267928696813 3.9100948225847 -0.19998815385267982
C 1.7165274322869153 -0.6412375912545109 0.725120838712449
C 3.0125220425005423 -1.3739034985734417 0.7367903296551275
C 0.49195312090453686 -1.2097595781469248 0.9226892224287979
C 0.3586802971840897 -2.628694144774834 1.1706209796685165
C -0.7172838486396753 -3.315164966707514 1.3821731351602626
H -5.686365438624834 -1.0290413016423068 0.558189598047817
H -5.606496959339961 0.8991117608373924 0.6297675758960616
H -3.709787227981286 -0.03350706070179006 -2.5084196996815513
H -0.07489144965068227 -0.24189846394561237 -1.4869875543049078
H -1.2167013288601192 -0.14229501108883286 -2.904281018928155
H -2.403379914191956 0.7162467291898676 0.9048444140553203
H -2.475103558210008 -1.0256923643007405 0.8705760662143937
H -0.11300079828894677 2.091229038386984 0.41820464481268155
H 3.7140953057848423 1.3617030898438112 0.2250037333416012
H 4.399417284286154 3.3549024132282788 -0.7344504511300087
H 4.016868133405301 4.189352069562563 0.795400078857756
H 3.334316036788191 4.8104024773872744 -0.7516823057913029
H 3.233001810420839 -1.60511257763909 1.8114067517653123
H 3.7852702936133644 -0.7624535183520864 0.2662598109878899
H 2.8669543156583517 -2.3562820833967217 0.24044501685097486
H 1.2950075926931701 -3.2425248558598447 1.1877460324075215
H -1.7370955383053883 -2.981625341786567 1.4196481834071208
H -0.58253581554902 -4.4148323604270185 1.5520943084431194
