22

C -5.054039685461849 1.090755297124813 0.7034788947381279
C -4.270082764558099 0.5558521140225259 -0.1963193269595659
C -3.415229680027399 0.014966086786094719 -1.0407765120192949
C -2.0806351053660284 -0.1741701306809474 -0.5536310658050381
C -1.9188996378095051 -0.6360807790578048 0.6706577540422554
C -0.5343784806253472 -0.8288104420563284 1.1667771560837048
C 0.3400502320145818 0.16145739920624033 0.48595311184074647
C 1.5862764974096732 -0.17183157911771177 0.28217390896358835
C 2.7229363358876295 -0.6384383980036452 -0.14780788199323694
C 3.990303231069728 -0.9880553749246456 -0.19400418824259813
C 4.993594559910731 -0.08812607013890257 -0.8177373016603073
H -5.560345275250738 0.3952874484484353 1.3276648577899768
H -5.081877191105252 2.1521606742737993 0.6937658435459872
H -3.832150142865846 -0.21304992007263204 -1.9840063694861914
H -1.246828745276305 0.0541258084406794 -1.1689423468496094
H -0.4985319252921764 -0.7154863884223259 2.2693692701883585
H -0.1697912267018311 -1.857856610080961 0.9468520801847531
H -0.07301849184024149 1.1147456593308824 0.1831998376816571
H 4.354245703451688 -1.923970902801457 0.20965086657621285
H 5.462491002781733 0.5146315775869973 0.008138350691784419
H 4.52469026200454 0.633487539603013 -1.517319831037946
H 5.761220527649781 -0.7319083306660777 -1.3271371082732841
