14

C 3.445179042006117 0.5040997834672531 0.24353998337525629
C 2.2358834341812983 0.12040300308749237 -0.02941994699027406
C 1.1159064310114555 -0.46247795901400857 -0.2840960909812537
C 0.009751179277397205 -0.9317035934403634 -0.7771539276968289
C -0.9036600543174889 -0.09927018420953275 -1.529982386052521
C -1.964935637753536 0.38214266465273333 -0.9222661941640131
C -2.212521157385074 0.0731987001719658 0.5049718286601018
H 3.619588555649763 1.0867100551514992 1.1185994373213823
H 4.304279164992586 0.2653319361345007 -0.3730223675713996
H -0.2185450458803422 -1.967353249149725 -0.6128756792519359
H -2.641220916945748 1.002511417863398 -1.491682442652882
H -1.5535495365442722 0.7242755612943862 1.149080601403049
H -3.2597321490599653 0.2865468284508543 0.8036458392611008
H -1.9764233092307781 -0.9844149644593053 0.7349228379189275
