24

C -3.4057430317161623 2.259670419759192 -0.5198912682281208
C -2.7543141267901676 1.165790542046286 -0.25486929030800193
C -2.438843829322798 -0.022031071833873 0.12025124273860012
C -2.240634325640232 -1.3070529954601553 0.31237007132962186
C -1.1311561018526852 -2.0216491822039435 -0.3596623017901438
C -0.17793365248279064 -2.589381024292037 0.6560255564211963
C -0.43836305191853686 -1.1656526602066597 -1.354694413199628
C 0.6306836838929253 -0.4979808948166704 -0.9467273655079459
C 1.6079596377994205 0.04407762470010561 -0.2777089476245493
C 1.331284940879679 1.2784088817223809 0.42966316678422345
C 2.300346009947785 2.1641148207052323 0.5638830879385507
C 3.6239352586500537 1.8583291918687512 -0.01268176004322614
H -3.9708700245996496 2.8085632901257718 0.2472887110914813
H -3.435884611035232 2.699648991341943 -1.502601534804049
H -2.8727337443578707 -1.8964627266004774 0.9640343441771344
H -1.568937904074984 -2.8799417383624353 -0.9346982916161538
H 0.14707016230255318 -1.8535535789122581 1.4016286205706465
H 0.6650878905763952 -3.0899678720416857 0.1405691445964169
H -0.7326493682827327 -3.3984012926474434 1.2010701555524697
H 2.5690086001541537 -0.4246147507455504 -0.2625703895573099
H 0.3509699958193578 1.498690329333154 0.8535738294337477
H 4.216352474553273 2.7951843596545434 -0.024681002466002872
H 3.57151287727313 1.488745369285347 -1.0508891442764279
H 4.153852240225912 1.0854659675804315 0.6113177787875935
