16

C 3.550728177221028 -0.5415535825418826 -0.7997510295451974
C 2.678639414924592 -0.1032743538978827 0.0833496455509326
C 1.7674788436490914 0.38600072936307167 0.8888844749110205
C 0.8075660357342385 1.2702889649478246 0.3175906496262185
C -0.4545946058275954 0.9576560344799188 0.5119168423470147
C -1.6695528232415853 0.5084097985766041 0.6668343129031946
C -2.160059626047604 -0.3903212785082698 -0.3358986083928815
C -3.391352155064766 -0.88565781131604 -0.23838016686834557
H 3.26537519220001 -1.436637554809224 -1.288151451610048
H 4.413797054534951 0.061090564361282636 -0.8990159147953936
H 1.8623106551003605 0.052127738340546646 1.8943558034433652
H 0.9336125328790716 2.1501904023953724 -0.2471988654462358
H -2.156794351609469 0.8648999615175443 1.528498776049332
H -1.5991012737234633 -0.7176739575683235 -1.2016209837723943
H -4.019653048642946 -0.6097805082958191 0.5963881073109272
H -3.8284000220863263 -1.5657651470447973 -0.9526255075534736
