15

C 2.927277321215529 0.24688448845143526 1.0733264739052606
C 2.192107019051587 -0.3007597986683854 0.12558698450700784
C 1.4084076523096623 -0.7567551961732067 -0.8283210801035134
C 0.44226315426369145 0.1800496134549381 -1.38055627542635
C -0.9313272052395395 0.01176132207637409 -0.9084349472001573
C -2.2173997203556044 -0.41304649134992527 -1.243796288402815
C -2.0040510338950788 0.0966800860326774 0.08961572235736115
C -2.432949930712539 0.4090996192821978 1.2987072806250288
H 2.5269897984270457 0.15397380833094668 2.0452962897028337
H 3.8159346234119247 0.7035816663563716 0.7238523285722337
H 1.588354627015346 -1.7714325272744387 -1.0750867447660732
H 0.7854072945358045 1.2044448220736954 -1.4928114416344211
H -2.8393667788323564 -0.829440429308763 -2.0196325608328185
H -3.470015137834032 0.24645699800157353 1.5516398087320489
H -1.791631683361727 0.8185020187146957 2.04061444996445
