16

C 3.091935215375621 0.8336107777598667 -0.3363440604183359
C 2.1738112324293763 -0.06955845957326919 -0.06665792403715376
C 1.2027101216818488 -0.9121976280211286 0.18399842155967575
C -0.13316897472294914 -0.4194784444079904 -0.02995631533203677
C -0.4334363280272091 0.8426852376545223 0.15844133781645323
C -1.8068454065112878 1.2609516459458776 -0.07955670537781022
C -2.763932839523269 0.3918740836832685 -0.18345634508631095
C -2.4901763890743087 -0.8676780904586677 -0.07797342556393932
C -1.171093011124524 -1.3684815840360995 -0.4706669718440363
H 3.364366420905232 1.439617676156715 0.47956025763457727
H 3.4285227952865585 0.8248422216330368 -1.3390765286286102
H 1.5178851639901563 -1.8629132276252298 0.5167419367069209
H 0.33796661045988174 1.5158302298085473 0.4785138860614134
H -2.058909582724306 2.298667306483041 -0.1744501870827965
H -3.2417067046583106 -1.5294099923566415 0.29899125271632115
H -1.017928323762395 -2.3783617526458762 -0.0326974599628855
