33

C -3.6102258229516164 0.8705799171530676 -4.280344825958853
C -2.7584996945795472 1.077005884065804 -3.316092466911437
C -1.9918744239710233 1.33594013151038 -2.291274398338759
C -1.4696690292245325 1.8199848170446273 -1.1992920435545116
C -1.5144361659714467 1.0298162134104005 0.06357892063728054
C -0.4302764730966051 0.3802380785030229 0.3517137503207311
C 0.7202979029280607 0.48188519543815905 -0.5755482307385816
C 1.8125484325501198 -0.17249796262777278 -0.2892631013173083
C 3.002785904453489 -0.12020580518089351 -1.1665803960847876
C 4.090203245150849 -0.7950929265101259 -0.8432730539205169
C 4.130969922746771 -1.6029533122128095 0.38667190876922347
C 5.5377408160317625 -2.0729048972317963 0.6871592855475472
C -2.7019935263196064 1.059115643347963 0.8196672541182282
C -3.709878303486219 1.8274333687943984 0.28897477223119705
C -3.054035232625053 0.4413233029411108 2.03531198877805
C -2.215801485944877 -0.30769268699240926 2.6538406949997415
C -1.5072016064416502 -1.0914323134693582 3.4689362611541292
H -4.478218507039176 0.2365492311636156 -4.144106882621891
H -3.4868419519892853 1.3171833719404433 -5.240667942372062
H -0.9993754579567045 2.7900204498924945 -1.1831049940166989
H -0.28601864424055207 -0.2385797167599555 1.2182397292192773
H 1.8596543642639103 -0.7738662861296781 0.6138231302179142
H 2.9449168293745998 0.47063347811516465 -2.0471664267234444
H 3.774618924458081 -1.0254478168617662 1.2657150127910723
H 3.5095713386242093 -2.4978921036985793 0.23748905705682416
H 5.503863482639965 -2.711816933875552 1.5743680295423466
H 5.892702500397103 -2.648722120337442 -0.18892580622133806
H 6.220709496389028 -1.2357890992223464 0.9079007405136053
H -3.519194058696263 2.3338059543838034 -0.6383881490929333
H -4.656349997077803 1.9377396614297415 0.7543615823154602
H -4.019952837151071 0.5348845443577209 2.5400069100610687
H -1.576733603203881 -2.1008602791081166 3.1983072954106073
H -1.014006338044508 -0.5483849832722723 4.213817843664127
