16

C 3.200482893351617 0.630509808791462 0.056390033191178246
C 2.21029349559677 -0.1768492879335831 0.2853923763435448
C 1.141475616305118 -0.9257710492422301 0.4807865038048826
C -0.0462851244094083 -0.5669244001762996 -0.28330014193127956
C -1.1707897217849113 -1.5117557230966652 -0.05449897133178792
C -2.3429855721347908 -1.1677991348701062 -0.5048714573967626
C -2.6929071514071286 0.0914675917044152 -0.3758222773157331
C -1.755681117311453 1.1096548458802025 0.09738606916320665
C -0.46740783112197665 0.8116660254866378 0.15033765079300374
H 3.840891674122744 0.3498527091234937 -0.7305135200803894
H 3.265857924107562 1.4915124033713785 0.6820044305542475
H 1.294848665355973 -1.703617390097025 1.182077667213789
H -0.9831641307530739 -2.4368031960855756 0.4686135392430563
H -3.695787567892612 0.37042817222831675 -0.6269762689744769
H -2.0497825295469405 2.0908726074964767 0.4066989663762121
H 0.25094047752250176 1.543556017419048 0.495921860096398
