20

C -4.566886538769943 0.9126219899750933 -0.1483247141756995
C -3.854610620929384 0.488007417296482 0.8592735236669435
C -3.080981325061142 0.02194803654648072 1.8175113719966294
C -1.9523847111592951 -0.799135908538088 1.3899435608455017
C -1.0670126487861826 -0.047342622898015864 0.46147315063037136
C 0.25633106822123236 -0.13120332614447233 0.4953702970184247
C 1.0270246003180235 0.6315282180498172 -0.4403838180368789
C 2.0392166428225287 0.014832641139622089 -0.9890314358116241
C 3.097196091126552 -0.650856470924874 -1.4028233384599818
C 4.294062626700645 -0.5342365523865658 -0.5840420021736146
H -4.265245033231702 1.8431639147537597 -0.5572031120680343
H -5.3664111483120465 0.265438362460909 -0.4354448677754933
H -3.383131848612172 0.3079777139832846 2.788079476750251
H -1.5811955397029578 0.5929008897212089 -0.2670973940806511
H 0.6743453643731203 -0.7883255180304699 1.2485903802237308
H 0.9125999614168951 1.6288523404424435 -0.7664277388102608
H 2.924088463528826 -1.1906692192076374 -2.2926313757556813
H 5.160291187947685 -0.9171589209840859 -1.1751533209927665
H 4.478216489749876 0.5521016225024902 -0.394240755986911
H 4.254486918358936 -1.0366018373337966 0.3925621129957961
