18

C -3.6930661161049225 0.46779991011986777 -0.6785742399945127
C -2.908939225168825 0.14051371945256852 0.3068728999535046
C -2.064328751004998 -0.10620069389247144 1.286901052281443
C -0.9761611322710274 0.7994787857885858 1.4357745432063924
C 0.2127040242503805 0.3395153103194847 1.1100784841514337
C 1.3308943327424023 -0.17343608790521414 0.6815525574993792
C 1.6116834927585473 0.0048310568688118335 -0.7525949986959193
C 3.0922313479111625 -0.26273844474428243 -0.9606159090490844
H -4.498271802697963 1.1220288199530697 -0.43256413424830226
H -3.4346682411701215 0.03952078699458031 -1.6264003757495251
H -2.3141280873432146 -0.9684048140510577 1.8483287554535308
H -0.9557156954503878 1.8058595347534754 1.770426622378935
H 1.9065941224412324 -0.6616240676394515 1.4214612641101931
H 1.3244670897974231 1.0328856335327716 -1.0752805605433826
H 1.0748918001089764 -0.7709246138612124 -1.3420299830930438
H 3.6243533024071826 0.6728360683200334 -0.6766412805469036
H 3.30630638362403 -0.5114844144004672 -2.032044706330246
H 3.3611531551699887 -1.0983663130489283 -0.28464999078373454
