33

C 7.4425869224041055 0.10503953353114753 0.655558845083676
C 6.3073063391508155 0.24368110393158318 -0.0009440682514191466
C 5.06283176542702 0.4374500768921259 -0.18648982314537915
C 3.826359926948011 0.6840059274713111 -0.5140269761717359
C 2.92259029571798 1.5088154211590197 0.31741524306953883
C 2.0106735193262226 0.6664249689382635 1.0832886220682836
C 1.596500807686897 -0.4270753556883988 0.4825251820414799
C 1.1569185610257595 -1.4394470501068728 -0.23866644451956207
C -0.024067087668364805 -1.1794538299409556 -1.0425624345859483
C -1.2072035214601748 -1.1289808339483403 -0.13887874318254614
C -2.0426307860686035 -0.12431088340131392 0.05697537943489449
C -3.0524734095245516 -0.5379725067601734 1.0367697382761487
C -4.429179190770065 -0.4067747027882343 0.5696242610277829
C -4.672239445442045 0.28282097046973415 -0.5085218864085834
C -4.940713081142 1.1885918991569855 -1.4303929224177576
C -5.025913266718838 2.6042258677473797 -0.9482348770280414
C -2.6818016135121194 -1.921412764598827 1.3778155513427837
C -1.6123676238535287 -2.2560456490616434 0.6928620709550627
H 8.11758577650902 0.9366611930938391 0.7525857296205449
H 7.724788444300335 -0.8223376119493485 1.105283676291514
H 3.446535195716876 0.25999686521636894 -1.444887766200291
H 3.5365217799462245 2.1122451028057356 1.0357032199589602
H 1.6187131393978618 0.7884589143910798 2.054530168093967
H 1.7407096818189842 -2.3059985219446686 -0.12371118521359435
H 0.05006980113446985 -0.24714700142767224 -1.656155341664624
H -0.1427440998649481 -2.0341108960217347 -1.7664310754792527
H -2.0045642464022095 0.8489295103043977 -0.417007538585737
H -5.235022185621606 -0.8637024084246315 1.1006298352305077
H -5.1044001279693925 3.272013950651105 -1.8167416044618254
H -5.950879830874821 2.6682213003711786 -0.32653442046686953
H -4.133141111888234 2.8701931757817536 -0.3244069091282709
H -3.2027771117152026 -2.5484205027188014 2.0720750465963995
H -1.0985742160151675 -3.23458526313211 0.7370240514386582
