13

C 2.781352139871934 0.3250579397713683 0.18096685494622505
C 1.5004604608829755 0.2955919160662326 -0.05576837571488306
C 0.23412651575186189 0.02313894452057645 -0.0493209391524316
C -0.7250205347209396 1.0407796821682207 -0.23807072957747324
C -1.966448443093766 0.507397436939586 -0.18932990440770064
C -1.8012782248358505 -0.9278826689806251 0.042826431278866345
C -0.48825205574957026 -1.2231644104380264 0.12738943157112964
H 3.362151348483091 0.1991626225990857 -0.6799390499818186
H 3.1946903852127386 0.45917786132258154 1.1357487142823761
H -0.5853231570762873 2.090919450679529 -0.4003364417807709
H -2.8952225423962656 1.0382558610145929 -0.30077803446090473
H -2.5879418785285924 -1.6479808096478763 0.13414885364499737
H -0.023294013801231573 -2.1804538260152238 0.29246318935241145
