33

C 7.796539016258642 1.2992832398312266 -0.2732306983496813
C 6.563254462272655 0.8891494303432668 -0.04915349421982101
C 5.288433637744723 0.669020448931374 0.02888574392572532
C 4.132623383543545 0.07544276946223595 -0.09947541119391735
C 3.725817434254255 -1.0758706914860041 0.7324994324296304
C 2.83282885890682 -0.6655366028813978 1.8294973856349304
C 1.5097242245639704 -0.5586386805604217 1.5993134298876135
C 0.952544014874519 -0.8353297001301666 0.3110310543596462
C -0.22995795748199102 -0.8147016766834254 -0.1721817849234762
C -1.5271754306079277 -0.4958257227796323 0.39476546865091566
C -2.692599458317267 -0.5372092221190108 -0.31004313972294845
C -3.789178159579961 -0.16245047615409602 0.558803978671283
C -5.083829278551851 -0.08133896690596587 0.24636304823193503
C -5.6041467593393985 -0.3653695761092586 -1.0518555517804995
C -5.248524726427665 0.4590329250692571 -2.018097152786415
C -4.840354244387612 1.3256655716959906 -2.916446660673357
C -3.1742698462045706 0.10473118732069282 1.8392930400220011
C -1.84008855228009 -0.0915120407783988 1.743979180799215
H 8.434423495354265 0.798107434887966 -0.9765345419007698
H 8.111965409200192 2.1634008876044883 0.2946872261164784
H 3.4682527750375813 0.47448468585493164 -0.8622564950414358
H 4.6305159212261175 -1.5729206702850909 1.1708391933852924
H 3.258565568616617 -0.4593999513339413 2.7942598803687178
H 0.9388799577487029 -0.2607893265011806 2.4322137068537937
H 1.743137579916529 -1.146091598928405 -0.46531442811437107
H -0.28795815379996986 -1.1050010652112703 -1.2745767244827877
H -2.7978629767176453 -0.803812936224362 -1.347135708815746
H -5.773898565822534 0.2173955843859813 1.0260448234516857
H -6.240892460635365 -1.144065677591783 -1.3727369448483242
H -5.476852608805174 2.1711175529912117 -3.0287560683817607
H -3.939632439645378 1.0689767784764992 -3.403569538068455
H -3.6704050650808924 0.4119334397539087 2.7421685133371336
H -1.169879055773556 0.048122646011811696 2.5782708680237114
