24

C -2.448640197430863 2.008116994854142 0.25398448601085444
C -2.5963194274023063 0.939499471643526 -0.4762188493404783
C -2.660836617263586 -0.18042450224461112 -1.161524751388954
C -1.577743479008769 -1.1312560129836113 -0.9713108822434966
C -1.2786246145693378 -1.4805085241989864 0.41151512337015084
C 0.01259761416149078 -1.3120110004577286 0.6300590993513059
C 0.7561007581036189 -1.548169644074765 1.8990389688572977
C 0.6277121729181456 -0.8416303981185939 -0.6043035909439113
C 2.070040952436699 -0.5145760570638221 -0.8365983979462475
C 2.135363297376048 0.9708024094486639 -1.0166333973681343
C 2.624916351893509 1.712798551390106 -0.04225293159845837
C -0.28823273127755855 -0.7327410918045141 -1.5430288914628114
H -1.904305778001315 2.7993334734520134 -0.2131792604932498
H -2.8846174282288466 1.966167913029644 1.2251539440376158
H -3.5209427681225582 -0.24456874072200888 -1.7818672672971863
H -1.9455639720105842 -1.8311502843844862 1.2030869576920853
H 1.1359066443461838 -0.6102370392404326 2.3501312761497553
H 1.6443150869206506 -2.219696369428398 1.7153782945021694
H 0.12338401356034476 -2.056855254245022 2.65164877925308
H 2.6562816166235264 -0.8122953024689998 0.03529127651372132
H 1.791382539266916 1.4503467412919948 -1.9251229439710158
H 2.983394072817242 1.2891923625532136 0.8874905121443357
H 2.690223213448927 2.7907094684400446 -0.13118627181589948
H -0.14579132055741972 -0.4108471646673119 -2.55955128201245
