12

C 3.654373254752399 -0.1843974376532056 0.0844392350346912
C 2.3731039296052594 0.04387505640640973 0.23117098008180076
C 1.1283020250104132 0.3882974590710363 0.0576555786301061
C -0.09165872485897758 0.5177612951677834 -0.3588496937629135
C -1.0753782783961972 -0.4333348290988615 0.05843087293702034
C -2.2027757533326024 0.07826989663210132 0.44074430880726156
C -3.455212650066198 0.42811090622567316 0.47635867647563224
H 4.038837478067614 -1.1237995022540384 -0.28215067964677154
H 4.388900969334921 0.5813979269648856 0.3324149839646537
H -0.8392270038712414 -1.45831296497128 0.03130947614052982
H -4.137901209454585 0.4765797435966741 -0.3253894618593263
H -3.7813640367906345 0.6855524499128284 1.4444702163967598
