33

C 8.512309384093443 -1.137052401626187 0.4718928594452794
C 7.265589592510681 -1.0692310227158934 0.101175720142815
C 6.00634224171269 -0.8874786535673486 -0.17300205755682035
C 4.803524085943368 -0.5962930717407391 -0.5419895640469328
C 4.2511549980875865 0.7530450551187949 -0.3103610029228411
C 3.393096271911869 0.6827708470968187 0.8997303393606707
C 2.123896270943984 0.3848376138587732 0.7089344225911722
C 0.9594623653008556 -0.0048988437365537025 0.2509986904539084
C 0.04897332299735074 0.9635116617479882 -0.35397192647725984
C -1.3424761209093756 0.48633824235575274 -0.1419041947667705
C -2.2335940421630447 0.19644617933555866 -1.08021949482725
C -3.4806721580764255 -0.23740381170000932 -0.46562606217881486
C -4.589614540658385 -0.606249607069669 -1.0792146088850225
C -5.766702382918962 -1.017447752105923 -0.383136437477037
C -6.515202831352338 -0.07851672820271378 0.1279026474853762
C -7.202877743432094 0.9305265185122712 0.6060609268662761
C -3.2323792011352026 -0.17386032300977675 0.9758871640901475
C -1.9854368217652911 0.24851811040767155 1.143497212608368
H 8.756120882428226 -1.339235542087899 1.5161896254577845
H 9.326297498679482 -1.0032184279323733 -0.20228161585568682
H 4.1914802374008975 -1.332829595755869 -1.0216257401973425
H 3.7074486491574623 1.1145075076246824 -1.2026016784487092
H 5.091894631200106 1.4559729438755304 -0.1406320512374577
H 0.6947552974901128 -1.0368987206908482 0.32551351124844147
H 0.2467454189602319 1.1734474721568147 -1.4137785911042986
H 0.13391221433783207 1.9589486595176262 0.16897134751204407
H -2.05107167567294 0.27420789808057666 -2.1474076002879325
H -4.599414129370445 -0.5937997804051631 -2.159446672341297
H -6.1335646298365205 -2.0036964695290216 -0.2150921314860636
H -7.935898786651127 1.3189064863483129 -0.051526102328111466
H -6.93512581119756 1.225534117623725 1.586071806431704
H -3.973503658485079 -0.4370051339855604 1.705120665212041
H -1.535468829531441 0.38759657220072047 2.1175155343261087
