31

C 7.312926501131147 -0.29808347899437493 2.354676860449666
C 6.426250327099781 -0.2900415583792589 1.3990380732542684
C 5.658334415899769 -0.24739664741321538 0.349427613039274
C 4.895468237760418 -0.1276817102100142 -0.6945689229208862
C 3.463802203643881 -0.37191657467285993 -0.573720335653985
C 2.527851655439592 0.4368912444002117 -0.10089421439022778
C 1.2461941315349925 -0.254399935917342 -0.1849044562289568
C 0.046602878307414046 0.20512899150524275 0.1864316296491832
C -1.0926230235793966 -0.6305303189302368 0.021804467594586294
C -2.1715063507794676 -0.05770346372917192 -0.45137902144116254
C -3.226180940763176 0.6202318305871549 -0.8399608273044818
C -4.019513633743427 1.1965240524507201 0.20362434641036992
C -5.279171064486921 0.8958070753444165 0.3443149005021926
C -5.902042944022892 -0.042441381453030266 -0.5708683236990042
C -7.171456850081824 -0.336141031255661 -0.41742566609605997
C 1.5478775494538404 -1.562671408623304 -0.7632936621539034
C 2.8481528370431697 -1.6483967522750667 -0.998109821926156
H 7.798130289896752 -1.2076503426106047 2.6825156779214594
H 7.606483250573012 0.610739633471362 2.8675229786882337
H 5.346392708554967 0.1525177757224069 -1.6343558550957888
H 2.691442636507761 1.4355233013609219 0.2800308072239885
H -0.0028265033543210883 1.1892620168425703 0.5942283641232943
H -1.220418791689945 -1.6634975664011302 0.22315756852318153
H -3.3467224172364487 0.649388623377448 -1.8884477919541345
H -3.496420170713376 1.9024842645142759 0.8699598871923369
H -5.825781285662781 1.364839027578519 1.1531125160310622
H -5.336371936212176 -0.4837758777061148 -1.3529337217143338
H -7.707181216818329 -1.0268365430963484 -1.0595229597583231
H -7.771039664921149 0.10697813443733059 0.38075197129316934
H 0.7949415007897352 -2.330142571945613 -0.9595841537861517
H 3.3584056704282164 -2.4944751643493617 -1.4206279277728318
