22

C -4.8283627838208085 1.2009973892295192 -0.4246861791592206
C -4.3449636713178545 -0.017185739289275914 -0.34224642033445524
C -3.792148430546707 -1.1936541748743152 -0.21817103547452893
C -2.518857504019579 -1.2393159599737573 0.4418693104679691
C -1.492189270124821 -0.4993831712001641 0.1007685105870714
C -0.22736708810618003 -0.573427008513718 0.7886706374184205
C 0.7848330566160846 0.19331905730161558 0.4105050878298302
C 2.0426369097856942 0.13012613406800408 1.0828512525558402
C 3.095134239976953 -0.09373223737578444 0.3123426433344095
C 4.083726130324859 -0.2264076343722761 -0.5447728190365014
C 4.623161300254829 1.0157117895350534 -1.0806293078845342
H -5.432979938764585 1.4921695687141698 0.3931327133316086
H -4.54850509037641 1.729319171847689 -1.2969839629644393
H -4.357499324810729 -1.989202519942958 -0.6258450294183854
H -2.412863938091604 -1.9392239714669972 1.2794380809338988
H -1.627976592670372 0.1824470304314959 -0.7307219655327798
H -0.10967781589982162 -1.267380734211866 1.6251516236866808
H 2.2934908672817413 0.2321218466878285 2.1006481256294394
H 4.350216032217301 -1.2304152317635109 -0.7272723172076923
H 5.079339588931278 1.6147603102916164 -0.258513172966726
H 5.457847741157536 0.8421222283690597 -1.8076854212849958
H 3.8830055820031473 1.6362338565087466 -1.6276483530188262
