21

C -4.986342430641644 0.7075376356109816 1.5882657040232864
C -3.82539493506522 0.17207135022013695 1.3013046964391892
C -2.686488916598027 -0.3460786527582045 0.9166932515523384
C -2.5431695791535494 -0.6195709709552529 -0.47794589352766353
C -1.4225802646905146 -0.23871211745188833 -1.0394193267528755
C -0.23268941484831093 0.1447675205206074 -1.479949254391049
C 0.7881746274595541 -0.8263224952952046 -1.3599776870727323
C 1.7756713717827728 -0.5548834851934589 -0.5563258162197376
C 2.779198842096255 -0.15967464426482952 0.19331686480635799
C 3.8224464189601957 0.5794071360328414 -0.4448958836281767
C 4.850440335230278 0.9900740970768921 0.2983107167885914
H -5.749069152265688 0.013779014772685243 1.8243839683063114
H -5.018788204925787 1.776430947076332 1.547217691557444
H -2.002489196134016 -0.49953185862384597 1.7053097271020627
H -3.1982745235870507 -1.0885861168504827 -1.154948766573919
H -0.2209962734085979 1.1290401514797423 -1.8585723059208639
H 0.8617415626931362 -1.7660946605660324 -1.8490194686274033
H 2.6840822165117957 -0.4462132724402093 1.2044603167024126
H 3.8044204988563943 0.8149173580273118 -1.5074070553909913
H 5.6293897518259755 1.5438528660753488 -0.18660244709422172
H 4.8907172659019285 0.7727477520357925 1.3358009679215932
