39

C -6.722516573234846 0.43976204638741356 -2.035560235747584
C -6.340911962666918 -0.8129372432876061 -2.2119719206848205
C -6.039089884217929 -2.088477897658539 -2.226183391212801
C -6.3471585587339145 -2.844790149111363 -1.0216912448919504
C -5.349483162679521 -2.4804735195768814 0.06198611764535345
C -3.9697293048664966 -2.82115962240867 -0.33242694004639867
C -2.9590020582164573 -2.0016212904595805 -0.4534417792027422
C -3.010718693607983 -0.5884615066755237 -0.21926429644301249
C -1.9911699707051327 -0.07754276553583168 0.436327072052051
C -0.8607776163816477 0.30657404683994455 1.0146238169344737
C 0.3052706904479631 0.2943271865702083 0.1593764263367008
C 1.3161156474562294 1.324116436388881 0.4240249203780273
C 2.5829917043695727 0.9183538825201268 0.47123484817732175
C 3.1331188788976725 -0.41612828823962333 0.2974444860852607
C 4.460593845216147 -0.36676012935924124 0.4134339871974051
C 4.82662001918831 1.030800274795328 0.670911137569412
C 6.175795081745726 1.484602114046126 0.8480392108953023
C 7.326363155661172 1.8629335758673615 1.0186328209820508
C 8.68289452841435 2.314605235834891 1.2062870909043621
C 9.017818234061922 3.5782406534019073 1.3564981199921953
C 3.7266948269349975 1.7797767857818168 0.7047960469215201
H -5.933381051892027 1.1061317548207754 -1.8250615356848825
H -7.767521163772984 0.5901533059131894 -2.1283579206061445
H -5.604699631177995 -2.4100054989832205 -3.132833949189195
H -7.396141708996974 -2.7669338395179905 -0.6822478873853635
H -5.478734323078527 -1.4119457284296026 0.30469033405282536
H -5.6502300616171865 -3.0541658076604916 0.9742470439544969
H -3.784730909275799 -3.8886252976876925 -0.5519506874273862
H -1.9893331380788193 -2.4222007178622467 -0.7647236333416435
H -3.7266589055079704 0.13198639491730077 -0.48552166731763197
H -0.9992828892248409 0.559029541142393 2.0231894046228733
H 0.1086503304804232 0.2287795512927001 -0.9052376272026854
H 1.0893500971436552 2.3600791003610504 0.5794264044133755
H 2.535230250394257 -1.3086296571806777 0.10637557351728251
H 5.170977335320378 -1.1814633490000777 0.34089645324002593
H 9.462896255771058 1.5554278386823288 1.2257827919144295
H 10.04889049592621 3.841626475391234 1.4916101926884782
H 8.296517807628264 4.381590430189211 1.3539776336802232
H 3.6544823828332684 2.8534256774965963 0.8732492977548717
