31

C -4.865588172129222 -0.42835853921158573 -0.4066805817701297
C -3.55114028687328 -0.2960156642013851 -0.4589426679515832
C -2.2572869738520493 -0.19856174585301525 -0.43641262443648965
C -1.720676562815655 1.1381784766037308 -0.3478404632113535
C -0.4185818192722878 1.111719270532705 0.3717443379829565
C -0.42150101925993794 0.5426225921872095 1.7601078772413288
C 0.7637618169030057 -0.29401532106140577 1.3892737369943082
C 0.5101569987766623 0.0442230061467727 -0.06497800792910062
C 1.716910994669772 0.6206242868239862 -0.7664057249012014
C 2.6649850057281737 -0.4073529098922429 -1.216432751692998
C 3.84668105186491 -0.10918949574487888 -0.712438946138418
C 3.7384682067720436 1.1031725289015122 0.07722337260599457
C 2.4929982360116347 1.5375231369609985 0.050765621953218674
C -0.06903227406833641 -1.0765419753349428 -0.8478192933574837
C -1.4958328540724208 -1.42513741745514 -0.5015355677479766
H -5.298605370625117 -0.4135809867534924 -1.3654598400004552
H -5.271092223270976 -0.525987189803345 0.5594054280797407
H -2.387104342048193 1.911783596821519 0.009440685241973109
H 0.02101918195622598 2.152047603092761 0.3891328227816014
H -1.2790748804621785 -0.09965366974597051 2.0282773789555395
H -0.27170858769649464 1.2971950950378373 2.553059878799673
H 1.7361015195523068 0.06990907081897005 1.7739083986051818
H 0.6785913260944656 -1.3754435552524018 1.5502075812091136
H 2.4871018549643846 -1.279671226552827 -1.850155721798608
H 4.770740542894123 -0.6924594748515637 -0.8687909700100728
H 4.598740825706173 1.5313947142075004 0.5865046778907305
H 2.1979312987545656 2.4421942834255668 0.5850933493607621
H 0.542944296642946 -1.986485226167234 -0.6733243943853825
H -0.06936332315288854 -0.7887389690181177 -1.9302505981514564
H -1.504185981086018 -2.032975393558703 0.43338623550779115
H -1.8863584866078527 -2.072418901102992 -1.3011361622380173
