25

C -2.645608900299024 3.0578395529092495 -0.21161829531869927
C -2.6264223373914506 1.7484537673133562 -0.3396175996435498
C -2.5060365516099092 0.44827173619487853 -0.48649617870598866
C -1.176943311580782 -0.05567934912594656 -0.792227150264789
C -1.2155641062151434 -1.4818282402390692 -1.083209902843831
C -1.3991683343496077 -2.2865294457594265 -0.06025255716298092
C -1.5808153378316963 -3.0013378382205556 1.0133151157084699
C -0.2905163807552684 0.16226577571522235 0.4391300956216695
C 1.0621893380295675 -0.3571303557044126 0.11140341481259433
C 2.096919186986121 0.46424852732688265 0.14677477698459385
C 3.440462056181909 -0.03921243176310628 -0.1758250324509682
C 4.476543492918519 0.782057325856623 -0.1406676952739606
H -2.468940713242473 3.4035589678495275 0.7730018237544238
H -2.833960465055827 3.582774372815534 -1.110184933032264
H -3.415318060988671 -0.08025170242692178 -0.36030444164333353
H -1.1176239861670527 -1.9880501834385211 -2.005783146308013
H -0.6915915005502004 -3.304587950353981 1.5204252132436247
H -2.6011902316607682 -3.200236492198109 1.262386194280374
H -0.7246068873492321 -0.38518831490307126 1.2931383688204054
H -0.2697865663814594 1.2622007475080483 0.6333095143836105
H 1.1638031962950581 -1.387077345367049 -0.14581826473999723
H 1.969838801498844 1.5013419037270952 0.4095287473396771
H 3.570028363799302 -1.0756305378108866 -0.4388619491548144
H 4.3242411527205356 1.826452047126967 0.12768387189344463
H 5.460068082998863 0.40327546296724304 -0.37922999029975013
