26

C 1.339102028992275 -2.1923043811068412 3.385403432272821
C 1.4553467584561097 -1.4427044966949665 2.2994001469298113
C 1.5971174354203965 -0.6818380824541836 1.2895689370120413
C 0.6447592069000054 -0.6394910733290694 0.16950034082444249
C 0.778815844838083 0.7904168468693494 -0.25519959447820556
C -0.05291834976566172 1.4201843477885119 -1.0497169496606218
C -1.241878049906895 0.9605605205418928 -1.6900074602244923
C -1.9164806566604056 1.796679543085638 -2.48090476374358
C -1.7770393061751875 -0.40206067232053605 -1.525886084091483
C -2.2991242721786054 -0.6710232516622048 -0.14009962252205097
C 1.9813446162552375 1.400864312588532 0.36496456068717886
C 2.676162496868675 0.25699337364205505 1.0454258408896404
H 0.8067181815826855 -1.7387747810353555 4.173318319057899
H 1.80290425040072 -3.1334278028994422 3.287196793099873
H 1.0616750144451537 -1.3045760098300645 -0.6547048132033421
H 0.2384824597807437 2.4945213905835018 -1.2432550805254596
H -1.5426009228553292 2.8071967844625245 -2.6171368397683543
H -2.811835522084807 1.4576196615192845 -2.9658607692682257
H -0.996387266674091 -1.169873186087506 -1.774403440358951
H -2.6467683999993104 -0.5316576387677734 -2.2411822035749602
H -2.00661629346182 -1.6373529233782116 0.27446170518492957
H -3.4352341227607726 -0.6755482272414144 -0.22094698999393797
H -2.042570657647249 0.14733460268016307 0.5620479636988038
H 1.7585281238862351 2.2409123120981644 1.0207085575757069
H 3.2067834284797945 0.5824908891680517 1.9720897400103294
H 3.4217139738638855 -0.13514205821027997 0.30885027978032376
