22

C 4.3178958765951485 -0.2593457571777112 -0.14200658391900534
C 3.672276919329527 0.8538356273651755 0.035089877407482095
C 2.805153435011971 1.851723699519637 0.1033229943965705
C 1.4494948112730586 1.5873556273593206 -0.38456280590696634
C 0.677641479113903 0.8127603448138843 0.33793951091411967
C -0.7211381715763178 0.4916294707805359 -0.08798388772401228
C -0.7857798046238997 -0.9768531236828637 -0.2638887766144651
C -1.110427342646365 -1.5468459290700431 -1.4083919561035214
C -1.647135454876888 0.9577071410997665 0.93762657704096
C -2.669218744855835 0.16947883611752787 1.2040188303189412
C -3.647804258832506 -0.6818901065409833 1.4080902214224915
H 4.341641573605411 -0.9846135929944694 0.6398169813370567
H 4.823507556062072 -0.4596151101301507 -1.062051620557571
H 1.0940373895407924 2.00669045553891 -1.2957250809656264
H 0.9991964948783061 0.36637733888812324 1.2696794952830535
H -0.9568962130663262 1.007011760103677 -1.0560616427399254
H -0.5565840145802864 -1.5985307208380868 0.5834838285775561
H -1.3368927838833595 -0.8964471125753787 -2.2469436263379055
H -1.166180599304669 -2.609179337506699 -1.5679604470028945
H -1.6314146039177142 1.8432531983170837 1.5139217499401887
H -3.4515911657989187 -1.4130669676869765 2.1502515215423315
H -4.499782377447048 -0.5214357417002586 0.8015493400560277
