27

C -4.0040066000306815 -2.889784279998006 0.7644464047786629
C -3.000238481613396 -2.120557212615268 0.45407919948401837
C -2.0772462255777158 -1.2510483117757492 0.11624801029298905
C -2.518033351456505 0.12804299067389863 -0.09254450424813485
C -1.4758535112564826 1.1162360081936744 0.08960161529303672
C -0.3026939266429001 0.650043905014075 0.40633299841072285
C 0.9157375639034298 0.16522531745660884 0.595833797033049
C 1.6587393758680113 -0.10164958751657711 -0.5782331192385104
C 2.885766826845742 0.3926089728286122 -0.6625548148645554
C 4.185406935628541 0.6100693062696764 -0.5893230579288493
C 5.021346002571539 -0.3546210601272303 0.1065150906124481
C 6.093175512919528 -0.867467862845466 -0.45662215805101275
C -1.5591959913965956 2.5356078883994626 -0.03363635383233583
C -2.7381624096027455 3.062836839775929 -0.3563311717488595
H -4.186884814919198 -3.0006586242650313 1.813136892601165
H -4.530007339594045 -3.3197790044161333 -0.060797471259837636
H -1.1131552271324674 -1.6729739098923986 0.03756456860322875
H -3.4254443922725257 0.34781472043245365 0.5467996722410075
H -2.935175491763352 0.1929030139935105 -1.1419649469229405
H 1.128686457501216 0.058325512637941564 1.6179625233950752
H 1.346527394712726 -0.6734120520855756 -1.435883391881648
H 4.726584680990855 -0.6359079140127523 1.1102303073144535
H 6.707325654752321 -1.5795369871395308 0.061282754817848985
H 6.370307076743503 -0.5777227142568298 -1.4511072918523202
H -0.7387393484267408 3.2080350970551037 0.11563905919785714
H -3.627129227484512 2.4424862392412057 -0.5256858981056476
H -2.8076371432687575 4.134883708974031 -0.4509887141403326
