20

C -0.9931422425146841 2.191650033917413 1.2940408984452472
C -0.5883313685212463 1.1572019930250688 0.621055527216199
C -0.4363783496598567 0.045085355851645616 -0.024385555285832968
C -1.5357236668426135 -0.6965565201853388 -0.567619409161906
C -1.3318641178572603 -1.8256072082924273 -1.2151234909285653
C -2.434061211859398 -2.6164156639917073 -1.7876828565160268
C 0.8819470550354667 -0.45205364360923356 -0.19205278108128013
C 2.036064646303719 -0.02839078253909861 0.16648016213398045
C 2.4598213456987645 1.115328161975275 0.8792415542938
C 3.7653388102791685 1.3475875711378993 1.1404107373913697
H -1.2142624376564615 2.099453476369627 2.2979960702774025
H -1.0679038128583236 3.075719196697138 0.7665150684139479
H -2.583897870580924 -0.37725499780077687 -0.4792020416798025
H -3.262742942139436 -1.9068163417519681 -2.0390067927672777
H -2.0999089180213226 -3.066162421763773 -2.740854857319906
H -2.850541131870167 -3.3507704215214424 -1.081447298439295
H 0.9295895463229359 -1.4183592762774502 -0.756080032948169
H 1.7701496688350828 1.867022034545191 1.2542882138060012
H 4.079518578001613 2.2147546050974403 1.6801489128184721
H 4.476328419908878 0.6245848491188659 0.7832779713301541
