31

C 4.955125106199458 -0.2527494243076501 -0.9254295849254647
C 4.195062978448478 -0.5473712589920452 0.09873357081635165
C 3.40814783961283 -0.7873655620724147 1.1373096517720147
C 2.7778331888257566 0.3643783359747946 1.6989193947659817
C 1.535553136719734 0.6768098536314864 1.469740417136946
C 0.5876620190149833 -0.033737142766643836 0.6471940994818722
C -0.6882541463691548 0.391079143530403 0.48273267630013306
C -1.4261373354633773 1.5404387374317705 1.0043985314296446
C -2.811908932142716 1.588185495733293 0.5434814651510673
C -3.6689828073688693 2.741689249325318 1.0255580716586323
C -3.3101742333377056 0.6741299573954438 -0.25781100339954593
C -2.5916634817095487 -0.45592190368223867 -0.7731970605435863
C -1.3050658145779621 -0.5753427568243025 -0.3965151250193766
C -0.3421822084688279 -1.6089370308623596 -0.759021479297868
C -0.5317640955534857 -2.7964595809384303 -1.6369898858372571
C 0.7835221440437999 -1.245712899427237 -0.11022076568604748
H 4.4642175039044805 -0.2770131745547654 -1.8654229782589224
H 5.962923325537032 -0.027259648787548302 -0.6805767270359272
H 3.3641506166868886 -1.8026189710110267 1.4144427077737505
H 3.371907339581265 1.0412076471011047 2.3724464896429605
H 1.1934186003843825 1.603338024637362 1.9802693801117945
H -0.8903886230620743 2.494896897635359 0.9661262247979792
H -3.4501439371900386 3.582891279866989 0.3557942290266341
H -3.3751244246870216 2.9081892224576156 2.0746683135509794
H -4.727937604220673 2.413281203805708 0.9191839119017138
H -4.363126757156197 0.8266659280176277 -0.5286739790742643
H -3.0111354945704907 -1.198178575878092 -1.4291818629429307
H -1.5694022264355503 -3.170934539168959 -1.548130929782815
H 0.1268233349190182 -3.6413607022756045 -1.2881768959322044
H -0.34690029274313666 -2.575514516008092 -2.701371050868638
H 1.683945281178374 -1.850703288986965 -0.20247223325389796
