26

C 4.897270460210915 2.151489347549691 0.47830329205525635
C 4.448652911412108 1.0644219486632465 -0.11213657870573032
C 4.030480356881187 -0.0973910005340679 -0.48679182159304407
C 3.4573826471970115 -1.1415679893863764 -1.0155100092044795
C 2.731564068647809 -2.0224302694002203 -0.14322974523298518
C 1.9501080199237604 -1.449227721671608 0.7293305085706937
C 1.131491921749557 -0.7948872785879717 1.5098480104337215
C -0.17374832006991267 -0.5369752569066574 0.9754628643121731
C -0.9959469268659848 -1.511034255719371 0.6553875316295265
C -2.3320030272572807 -1.1781554449187825 0.10737930798843745
C -2.992798438848231 -0.27939594887992214 1.0939745590939003
C -3.8318207549152468 0.6761048480032448 0.7375508707940774
C -4.199253403948837 0.9540449984065369 -0.6362302363409096
C -5.055150747253411 1.9458108427630694 -0.8523381103555107
H 4.146018527107773 2.85538911332305 0.8574388417436349
H 5.959566114653735 2.331032858125513 0.5788436066714961
H 3.5249345878052587 -1.3434441302989486 -2.087935960994054
H 2.7310823054766264 -3.072660592591881 -0.09868097586380686
H 1.5436000183006335 -0.5357269473752881 2.4466508669619778
H -0.5018482164749395 0.47653226524144926 0.8273276640167514
H -0.7257577295956017 -2.5563868905079357 0.7804464108703857
H -2.250093732576817 -0.7277368295243973 -0.8873247456834626
H -2.8042895574603546 -0.38069909196700324 2.1558584369470823
H -3.8284921579499294 0.415090696854818 -1.4901836218109277
H -5.479356639400228 2.540916860282689 -0.0620093207169313
H -5.381592286749718 2.216885869056986 -1.8636953700208
