19

C 4.318892079252037 -0.6392233276441752 -0.5747643987135344
C 3.2467846165637457 -0.002558958411478448 -0.1700625207565605
C 2.117112930159013 0.5262202260248608 0.21305231304428535
C 0.8846234877782546 -0.0761899847613419 -0.28630520034397516
C -0.22732497784867495 0.27705660124849 0.7099755710486767
C -1.4821449675106082 -0.34097296834765295 0.19357505749127168
C -2.5966696330067895 0.35120854614946534 0.19817307669047618
C -3.8681291068756263 -0.24423195000706246 -0.313572506006543
H 4.7121747001762415 -0.2557765323652695 -1.4973030726190573
H 4.654436650156396 -1.4281486818809979 0.03643082765499579
H 2.2299033059048132 1.365225852404521 0.8685529958033038
H 0.5927716301319612 0.2311557448204463 -1.305185974383395
H 0.916393167545727 -1.2001957096702909 -0.2869290245675535
H -0.3216738178728889 1.3865249547646932 0.8203175629983643
H 0.00011211238748508147 -0.12147542388859528 1.7058322159508823
H -2.6690881831111164 1.3756514177475525 0.5640870287019281
H -4.518542482432298 -0.42191003771601593 0.5880557336249276
H -4.355746180014012 0.4497335052514771 -0.9997514865969546
H -3.633885331383648 -1.232093273718621 -0.7944382879966579
