25

C 0.3960508330089836 2.704196730913363 0.8901713833758298
C -0.03988599125336532 1.4765541512212055 0.6937982902387005
C -0.401126089724895 0.23845750186538037 0.4853524563753684
C -1.8040264240477373 0.034083446807643414 0.5650334452825067
C -3.012094851493609 -0.154444513629091 0.6363442485777945
C -4.422180314667961 -0.3830220193440471 0.74129162554078
C -5.1748248238233465 0.08118626443026442 1.7193229034560564
C 0.6051693818090348 -0.7135326051911082 0.21649339181791444
C 0.35494401721167895 -2.1475307485185735 0.4487504865128145
C 1.7611966467321216 -0.37846082641517054 -0.23754083674466986
C 2.8044192238043553 -0.018986437031986658 -0.9215484067186636
C 4.147080463950895 0.4351838118154779 -0.9699915128713925
C 3.517244211935686 0.23526488192330053 -2.2222303750673524
C 3.4144960356308154 0.21390483260367457 -3.532070008407139
H 0.45665060934638807 3.2774960020768056 0.010172337896006644
H 0.6146291044168795 2.917451321819622 1.8966008565611485
H -4.895854917608005 -0.9703761492921686 -0.026659451059357336
H -4.670083749131316 0.6794994651766691 2.4940834362447264
H -6.219002562655334 -0.1035767627197148 1.7726543383436018
H 0.15096885887507036 -2.3595744078203156 1.540228919697184
H 1.233492233313867 -2.7783106407675855 0.20429461898411497
H -0.5400722807623596 -2.5155322624470977 -0.10676874440714655
H 4.973063404167872 -0.1824680871465498 -0.5661276599278232
H 4.242733327498072 0.500216575416671 -4.154636973460827
H 2.5070136534647647 -0.08767952575501797 -4.052443335125908
