31

C 2.9615365822235806 -2.675914380983621 -1.3057459143066097
C 2.424636151952508 -1.648044339094787 -0.6664225614073119
C 1.8952159478188924 -0.5987446145971552 -0.11953718020786627
C 2.0747711446927437 -0.5527823077666877 1.3450737859504098
C 3.4118388954911985 0.05471688941167067 1.6061187575652687
C 3.5400551065225443 1.2012765124958154 2.248065716057724
C 1.2580111110833876 0.3797103546835203 -0.9734488111251028
C -0.11914314509258578 0.8053152287059572 -0.6370054469575158
C -1.1931970351497156 -0.1850761575826296 -0.6554410629889372
C -1.0970806022498263 -1.4178941396809353 -1.0657544542939315
C -2.514131967378137 0.28948744833458556 -0.1494935318064652
C -2.82259033802158 1.4871196048464894 0.3073928621130976
C -4.213219253850319 1.5447689041423287 0.7023050794633602
C -4.752668656839722 0.37077105484555495 0.4826173872724109
C -3.724981783251187 -0.5312134720903154 -0.07708594335941168
H 3.957102510709181 -2.528390682031535 -1.608697600842195
H 2.2958902661777056 -3.4836054480318586 -1.4078713318886593
H 1.3130248829146998 0.02878236751199568 1.866051387079539
H 4.337267477249793 -0.4304450688982156 1.2734250737930635
H 2.650822366013873 1.7288038587150478 2.6025128121868297
H 4.492292545045803 1.6615624272142135 2.449633894584163
H 1.9063523524675405 1.3139390652682914 -0.9200470626162349
H 1.2848413755460646 0.12266857998118745 -2.0571620125249117
H -0.1754227239473372 1.328063243016622 0.36849405730108714
H -0.4072141982079979 1.592734916088549 -1.410725571003843
H -1.9533319274998542 -2.085159534978494 -1.0405569572164994
H -0.19735643179980406 -1.8224657339660104 -1.4529819089388356
H -2.1153433131543196 2.3139539431715876 0.373405649303298
H -4.709526934933058 2.4175744709268936 1.108865096889008
H -5.775434827787669 0.10363162749345702 0.6766266281486807
H -4.033015576745803 -0.785144617151699 -1.1156775485182682
