21

C 3.6118021573188597 4.048380083791639 1.2315983561670967
C 2.6717787003796403 3.1042769257395064 1.2010981907069234
C 1.2838608410127836 2.9750246255163013 0.8956508981741746
C 1.1212608061714602 2.2833003703939583 -0.36141161172745284
C 1.4580703102651573 0.976699526859031 -0.46104573728242737
C 1.2968310097670919 -0.19196371611594917 0.2826340713319231
C 0.3378119554382061 -1.1038849939684576 -0.11254967997644684
C 0.8402798232561166 -2.0083536551253394 -1.0072657613069147
C 1.1051383313521332 -2.9938492276966024 -1.8572715685865528
C -0.9978404641141287 -1.2324527972976629 0.16310354591225634
C -2.196758405378547 -1.3423492838042674 0.41143569353451515
C -3.638133682204462 -1.4959764699149154 0.7030025880852006
C -4.572994328801976 -1.9948981509520018 0.2582404768553229
H 3.4489323640518554 4.887917127829196 1.859312334946778
H 4.48428979383945 3.954346927238435 0.6592980197312863
H 0.7003750022061195 2.7903337239442694 -1.2077644849861608
H 0.2549728635247759 -3.1782882297315203 -2.5030601385738076
H 2.025393928884526 -3.4368070825102297 -1.75885960350079
H -3.750070589034512 -0.8303281855960121 1.6960000223852876
H -5.464737692840841 -2.388413692132334 -0.03771954161295403
H -4.02026272500451 -2.8227138263668805 -0.7415287100406318
