31

C -3.9628102564216916 1.6465112035403877 1.3769266473928945
C -3.0735623412107516 0.9655146180301192 0.6802379479423654
C -2.2448611830677905 0.24175924119465986 0.012619653193880531
C -2.3220826762870774 -1.1337950131567658 0.42406764796301966
C -1.5983963197760422 -2.183498651126918 -0.025582892513720316
C -0.5105055021439445 -2.2543566070008794 -1.0697027606731484
C 0.6697378442541365 -1.556163722435074 -0.5101527684118404
C 0.6829316310097551 -0.10082125395289075 -0.4650315402225595
C 1.922063275722459 0.2505562608283973 -0.01473988692008952
C 2.428635126504737 1.6092017532315797 0.20101725388299282
C 3.671949171866815 1.5038404591428047 0.6512737445525678
C 4.045947972411156 0.10724650310863391 0.7551336007665618
C 3.0207175845485876 -0.626430703980779 0.36498512413966033
C -0.06032290602891123 1.1537855562122803 -0.6906015646794861
C -1.5221537489241685 1.0642639069601756 -0.9220883229445466
H -4.900444458091886 1.6833473763208593 0.9142843987198764
H -3.5529698397049456 2.0198785039002884 2.2643196798314174
H -3.0406023405650293 -1.391354008029782 1.1880687515651707
H -1.8555841791092165 -3.1075449641074235 0.45107685991294594
H -0.9300693224896436 -1.771593840108515 -1.980613754353052
H -0.27288747564728705 -3.3067188419121223 -1.2020811653142465
H 1.5661417667566813 -1.9678882255137014 -1.078395153415923
H 0.7500631357410267 -1.898691475066339 0.568689930529997
H 1.881387399752861 2.5344573201263985 0.020353870350013365
H 4.280369613733899 2.362292113217994 0.8926714895003839
H 4.997521212542076 -0.32179059658508874 1.0915904081713466
H 2.9843007670277903 -1.7284006660974016 0.3286289334036021
H 0.03307797864614581 1.795033464292481 0.24468409530596877
H 0.4864338371340585 1.7143047311528812 -1.4770792740305405
H -1.6593953190934472 0.6032213810776994 -1.947533029008525
H -1.9146304490900659 2.093834176735733 -1.0470279246369543
