26

C 6.420105532959486 -1.1293418841616663 1.0735084777961237
C 5.2934962291785395 -0.4872373992280811 1.288101821779154
C 4.169192990676792 0.1597784128515178 1.3979993963986175
C 3.5365692473200676 0.5904473893585096 0.1977770096099833
C 2.363256060705647 0.059183188852754254 -0.056476938679576386
C 1.152823540081555 -0.4410508848707269 -0.1799544460459828
C 0.07811883966295469 0.31599832158585434 0.45150042297403453
C -1.2191050326988115 -0.13437302213837046 -0.11145039138045076
C -1.396949949977465 -0.13065533097363832 -1.417812795058658
C -2.637207758335871 -0.559673330899537 -1.98559241013947
C -3.7255610268362975 -0.03223113455902963 -1.461706451698917
C -4.749192306283778 0.4623846563623732 -0.793612288236678
C -5.200328714346342 -0.3084528441101857 0.3555117751730142
H 7.280643904885719 -0.5162631470432121 1.0446709454565095
H 6.317095458154503 -2.175831594220803 0.9570329281534063
H 3.846467384706848 0.29368311741040143 2.4115325109040207
H 3.8537723775448747 1.2808684198768419 -0.541325412050186
H 1.1246633318800385 -1.3421526190557558 -0.7299760100650727
H 0.09260014361181353 0.07100945682940214 1.5486568817062516
H -2.022890161545153 -0.46740452886321904 0.5528673677508171
H -0.604300503230993 0.19686907612387733 -2.056474733688215
H -2.8404993964400256 -1.2390370729727849 -2.7653727157786117
H -5.103410749378758 1.3710407632291424 -1.1977652890990884
H -4.371807066633003 -0.754918798954396 0.9519782019809354
H -5.814898356066737 0.2667075238735534 1.0798239492800643
H -5.842654019595679 -1.1582371438923542 -0.01344180704204364
