17

C 4.589464904875955 0.9885030507676732 -0.8385730974050722
C 3.5248811413346033 0.3123955138121319 -0.5304117186031404
C 2.3969453602976936 -0.2174404736821012 -0.19337881865993137
C 1.3361807094442348 -0.7365540319275508 0.3694429658724316
C 0.13396400165118913 0.07515085788295123 0.532393498518648
C -1.0629058013990433 -0.5116400004814383 0.5185760564804645
C -2.2455971323694777 0.2991714745710411 0.680430188164087
C -3.2908468905075434 -0.04410904647574927 -0.03747438712890805
C -4.260616136769182 -0.4382652751110927 -0.8111967261325289
H 4.68508037880343 2.0313560530628667 -0.5767885218962125
H 5.372690408858572 0.46329028425749735 -1.3666910175195512
H 1.3537682376983935 -1.7497880440398956 0.7067412409457184
H 0.23500074064974377 1.1237491500250534 0.6596471710965466
H -1.1600674985413264 -1.5729756550531793 0.38952196577707526
H -2.4046505853138904 1.1388236405162935 1.2956702114532328
H -4.909185192134181 -1.1642101539498433 -0.37024026744143324
H -4.294106646578978 0.002542655825229359 -1.7831662782393383
