26

C 3.9607240055635846 -1.916985624360322 0.4277655523333203
C 2.8493250979405342 -1.31117325503552 0.11576001212952068
C 1.6358326035216186 -0.8590900073992364 0.10390563316849437
C 0.5288519598582816 -1.6580543379101917 0.1335792063540501
C -0.7267842128657264 -1.0511834655876904 0.11526595397043532
C -0.8470224624769322 0.32804887051544956 0.0682248118988785
C -2.2030902249912616 0.9801690666677332 0.048535049747075835
C -3.20628638187442 0.1714818465970777 0.7468652884487277
C -4.168894236383148 -0.13191531317967575 -0.10283730705957488
C -3.876312216106656 0.4486005860399707 -1.4149244392919933
C -2.7282389923091848 1.0974997820795973 -1.324647289262824
C 0.2892456793128935 1.124783374318 0.038670370749430964
C 1.5047918266382603 0.45526702083683834 0.05920720371089159
C 2.507308488873723 1.2979970835082049 0.02850482238334162
C 3.6124574202243416 1.9986147534247478 0.003787931779307026
H 4.456929700250872 -2.205335857454821 -0.42343939746426434
H 4.301998380489419 -2.08782728838252 1.4093857030524382
H 0.6361879220974637 -2.7465023330811738 0.17074812228143432
H -1.6216817574898812 -1.6706003857483651 0.1377605399607021
H -3.164041038582326 -0.12423202988027908 1.7779869763784477
H -5.067755119189079 -0.7294601901137854 0.11433437503239742
H -4.521592269089517 0.33463848863424 -2.2720942823493036
H -2.253076582844233 1.628409678741289 -2.130939064747581
H 0.16101180350361025 2.1780429396388437 0.0023350776321963947
H 3.9684854059849104 2.1918526344860765 -0.9697070100292645
H 3.9716251999427334 2.256953962645376 0.9607031937684627
