22

C 5.426535430586518 0.7664586226392991 -0.9066780403091678
C 4.2854616511531844 0.2002603431195929 -0.6474181328785302
C 3.172191546596555 -0.440546542732381 -0.370254262878665
C 2.464171156351353 -1.5957224901022276 0.05079930472420334
C 1.7659551309529768 -0.436847973597466 -0.28638348108802664
C 0.44243421406043537 0.21471300423415168 -0.41963455740105804
C -0.6690243266711537 -0.7287070327499624 -0.036558238925259806
C -2.0043275180763294 -0.0980010629134656 -0.16174072635564435
C -2.321489861765711 1.1230124339169314 -0.5469371610760823
C -3.7556723216618524 1.3364072346335116 -0.5274087115449343
C -4.298470465395143 0.20279473641560247 -0.1170464986460074
C -3.256799760370881 -0.8194983564083544 0.15657239150491756
H 5.804308134805889 0.6832337904050658 -1.9131389007113342
H 5.915884667359767 1.280564017165602 -0.09508318290843372
H 2.3736554974051023 -2.607745683870149 0.38762266478063584
H 0.4478633358511526 1.1421454392838315 0.14646055122980217
H -0.5613977731194527 -1.0750604024626227 1.0114139474641353
H -0.664490045751872 -1.6169190050646476 -0.6915012945499405
H -1.5334761389499783 1.8352918059322463 -0.8329332447065314
H -4.262493976833003 2.27089727279175 -0.8055794003245728
H -5.378042818558744 0.0949941531143911 -0.013274932297083538
H -3.392775757968876 -1.731724303750655 -0.44565436433990013
