16

C 4.262297537000139 0.507807326752528 0.9464254537385131
C 3.023278763218516 0.10218230555112119 0.903663694769065
C 1.784551424299805 -0.16019760871031924 0.7561412400080172
C 0.5141936827110551 -0.09662258008523784 0.586267410921072
C -0.7314490538422119 -0.2114652295063866 0.24074342597511947
C -1.2793918835069662 -1.423191517294574 -0.4202405120679788
C -1.6499474336121474 0.8750391530262083 0.49930559315564904
C -2.918534564401624 0.8258906287774298 0.17714473467993377
H 4.939318618642036 0.09323786570923268 0.2066571091095498
H 4.605395148540963 1.223324619234634 1.6818029338997202
H -1.889582940360866 -1.0584006921348004 -1.2832892927469526
H -1.941084879296136 -1.9204877250291856 0.33592171605768023
H -0.48259752949495666 -2.1214231623242017 -0.7450222594621957
H -1.2688378910031768 1.7623430257194135 0.9785362594871805
H -3.599131016166733 1.642871292148548 0.37395583191001847
H -3.3684779827276867 -0.040907701834412995 -0.30939229232447263
