18

C -3.1695840279851377 0.7628543686673914 0.09942084579287166
C -2.6426507048894026 -0.4233053993092551 0.237896795585682
C -2.038628020163942 -1.5699133481139513 0.3972697359084305
C -0.6090690033033707 -1.5156632559256227 0.7274282385882125
C 0.049839278742145166 -0.25010881717102595 0.3319424426839324
C 1.5025474820638225 -0.2891702484857088 0.7090020342718255
C 2.2219895713124718 0.9641708406819873 0.33402578388255577
C 3.4613890801267733 0.8385037807691971 -0.10370236175183167
H -3.1317201524004625 1.1544049590311796 -0.8882257279939823
H -3.5659897622692345 1.1857855220990787 0.9824073821680126
H -2.653249548036344 -2.4158706523892954 0.2692933558154211
H -0.3719511267385807 -1.8675170916135548 1.7460663785459607
H -0.01974109957949157 -0.1430833801045375 -0.7702720476792837
H -0.4904983529231313 0.6055786507406883 0.7809059396978225
H 1.6913982338581568 -0.6026718845335466 1.7431193222330406
H 1.7707558439967006 1.940652785528517 0.4085875081973847
H 4.028669055891495 1.7407285218016828 -0.39151714283634004
H 3.966493252297749 -0.11537535167317675 -0.1998326975247935
