24

C -3.711296659952343 -1.6639527867239914 0.7139192989009305
C -2.543022972741389 -1.5550821432255655 0.12282975966718233
C -1.3762852067923574 -1.3566654556561055 -0.4306432618667312
C -0.7826127096491725 -0.06980905521212066 -0.24717534625449494
C -1.3972021722170986 1.088539532885452 -0.4307080448165548
C -0.4909702721534634 2.2111680669035283 -0.15281830776219518
C 0.5348196844030437 1.5821753327602794 0.7662497924296987
C 0.6362632794113355 0.1815274929310239 0.1841319564430783
C 1.4785788390327879 0.2596663206902562 -1.0197372715028112
C 2.6290747918390225 -0.34465225544598943 -1.1970535659025638
C 3.3130345385204816 -1.2188456599327024 -0.2400937141944506
H -3.6714515936393286 -2.013292559245965 1.7106358361985181
H -4.536905116773127 -1.385792035876257 0.11127386129438732
H -1.0008399822229803 -2.196556091880569 -0.9631823467823547
H -2.4432749316660693 1.2076379459123272 -0.7478474947027679
H 0.006402319489589214 2.564962686560765 -1.0879808106977633
H -1.0078878079959945 3.0669152630931 0.327254534050907
H 1.4949859670452637 2.128096738148225 0.6880187973108367
H 0.12379380643525204 1.5708265907129517 1.7785073821832007
H 0.964702427199363 -0.5513168243903422 0.9194443343607772
H 1.1141433528963203 0.8781365556940728 -1.8446986932458938
H 4.24969332900944 -0.7257836382892119 0.1482687185504224
H 3.69366136177273 -2.1174552923768877 -0.8039953500062776
H 2.7225957287488813 -1.5404487280361931 0.6151528321021783
