17

C 3.077420467262189 1.511607049629741 -0.4013458389809568
C 2.362319300222709 0.5801049747521729 0.19776666843890595
C 1.6367030830368474 -0.380386611871437 0.7250675132468939
C 1.1103514424478858 -1.3405645661652106 -0.18298410981295685
C -0.15903443218039723 -1.6231964163166432 -0.07683521811948228
C -1.4563163064410822 -1.7492925452350252 0.04058249629028717
C -2.263052724329715 -0.8538557125280289 -0.7179663851602326
C -2.3507060247785847 0.3830330106842653 -0.2711060011202972
C -2.381586972035825 1.5872849202066428 0.2486232974426832
H 4.1066147599260825 1.2828474344228031 -0.49093115983982255
H 2.523370163620208 2.358028900699598 -0.7101340484428343
H 1.534298716583729 -0.3165717320599219 1.776188185425207
H 1.596510498719189 -1.8820586539848905 -0.959406135270975
H -1.7419004374756433 -2.5247096215351243 0.7065004695092925
H -2.8178368819018687 -1.0219258675064333 -1.6036804116112315
H -1.6205811788562923 2.239843229134392 -0.10537465798671561
H -3.1565734738193876 1.749812207673244 0.9499533312932154
