22

C 3.3924853599383313 -1.3236584864393506 -0.9498544930881689
C 2.5129730449338945 -0.910930654566572 -0.06756446550266172
C 1.6094252872973451 -0.415258497970174 0.7348976962377974
C 0.894174348769939 0.7175927016863803 0.3193466934290437
C 1.6344842400444823 1.727907621557335 -0.03249418951928453
C 2.1268539163498854 2.93575205178366 -0.09354977266924475
C -0.5338046313828457 0.7172793979936122 0.30285664140911417
C -1.2226284479499527 -0.3408536428114276 0.6746103144741188
C -2.715938992205231 -0.29528218979979154 0.6408934071185196
C -3.2310297746233827 -1.3831976089652636 -0.3051997399010928
H 4.356406654257333 -0.8956484139010811 -0.8486207275975131
H 3.026635253406655 -2.0280757476335696 -1.6472989121592405
H 1.5251872450503445 -0.9660210374441559 1.6567741595086398
H 2.3484325907388435 3.215552219390694 -1.068820334609726
H 2.2953034410365 3.585631242708273 0.7163270533941004
H -1.0720608865033454 1.5940583541192215 -0.018199264438894403
H -0.747243675348606 -1.2627104647543144 1.0109313441319567
H -3.082354857188115 0.680519063058967 0.2706767420619135
H -3.084373394538212 -0.5051386642507629 1.6819561244793761
H -2.6222179951415017 -1.3194445662684702 -1.2361006448371343
H -4.281163405901967 -1.1648582086461206 -0.5881599490129275
H -3.12954532104049 -2.363214468847141 0.20316005413847593
