38

C -4.16738643010339 3.0810212126155454 -0.8933785519301786
C -4.378661873881206 1.9248066398597106 -0.32816470221467287
C -4.358403621173419 0.9243851001763541 0.49689801187503185
C -3.7550936600644405 -0.2839593710419431 -0.06862767759018527
C -2.324405950106148 -0.2859014146311576 -0.01360154472714355
C -1.5312723838497935 -1.1510487320301481 0.671765746132289
C -2.183885588950909 -2.1778382619661447 1.4283614140594543
C -1.6956242151474217 -3.132927141352221 2.1655405136196566
C -0.09635084679899365 -0.9180530262860712 0.5464835664580802
C 0.8730913299830632 -1.5490965166643476 1.0610133739085919
C 0.277060477900006 0.26303351766345523 -0.33762732904337717
C 1.2329140652410997 -0.16721765558034324 -1.3943303291436393
C 1.165738705219208 -1.3819044261267106 -1.936306170879867
C 2.2587004483429607 0.7560454770336369 -1.8427233531318976
C 2.5709619903167473 1.8682319951690494 -0.9757822123227929
C 3.6785889047335827 1.9129093244271729 -0.2729034773437518
C 4.624758481816689 0.8201434789263279 -0.3603354560496898
C 5.764523549798415 0.8319224188383324 0.342139238866069
H -4.949918102867777 3.3529258158261586 -1.5087283374632228
H -3.3063554945493525 3.6833563181227 -0.7527389448899939
H -4.722625548496783 0.9217012433036879 1.4877115869909736
H -4.045089361899069 -0.40781323053798846 -1.1708141630435767
H -4.227767995002282 -1.14327972817607 0.3920985242545462
H -1.7358856940315226 0.4789582443791263 -0.5713962204458326
H -3.310565406273972 -2.1476610467391244 1.3830994474024676
H -0.707166084407137 -3.380616017695263 2.382969077797285
H -2.465524876934328 -3.8130177303672403 2.6562140189099477
H 1.9364331988831702 -1.2071357113288965 0.8394556702318069
H 0.8742494948168684 -2.380847581148809 1.6936725972341355
H 0.7407194801536171 1.0319749203773108 0.3225046581637939
H 1.8470103848670076 -1.7188031275218494 -2.7044267835217344
H 0.3986086050908329 -2.0688123563021854 -1.599186732767778
H 3.0202238745316317 0.38835551314877587 -2.5074523445027976
H 1.8505768648611571 2.697340118181557 -0.910996873616639
H 3.8891467984495365 2.7460734858352747 0.36228750438138
H 4.463005509955755 -0.054388220732234045 -0.9909299848427546
H 6.013161596755343 1.6570503287747476 0.9956812792404547
H 6.4825093728211 0.030086143569546635 0.2924306537693386
