31

C 6.270383493059444 -0.27509683344212316 0.04348372756173071
C 5.050766051445445 0.12956900455952444 0.22666393341894425
C 3.9313956895793365 0.5515283623715149 0.7048505725637048
C 2.7638267578275117 0.965362105509412 1.0896580451997973
C 1.6516053786269738 1.2825880767412388 0.16835422299635774
C 0.4393862360780388 0.4665528839745256 0.4602314717959877
C 0.35587538823347153 -0.46143246231705126 1.4528615980390158
C -1.0006436454818843 -1.0578081285577783 1.4260706758769264
C -1.5222277644994155 -2.1073459278127675 2.3308172901043265
C -1.6983978077076394 -0.477354792817133 0.4225366237807614
C -3.0415619881827913 -0.6168617328123709 -0.10712435582686079
C -3.453796199360795 0.11238598536595308 -1.13097021190719
C -2.525398899009523 1.0651386279318178 -1.7201558689059744
C -2.928812109194916 1.9246200183869162 -2.8847722806124576
C -1.2649189905891682 1.2299336368887532 -1.2608875881204642
C -0.8046229064810251 0.4846796896430559 -0.1946630450539273
H 6.8114357192816435 0.021889177452289275 -0.8334527531106135
H 6.783940287696553 -0.9201739018943487 0.7589563430094485
H 2.5981790599415118 1.084311097186772 2.151882588835585
H 1.436712810123751 2.3803358003497426 0.2622826985473396
H 2.0387406910171753 1.0786205229418682 -0.8704268021259293
H 1.175583478976267 -0.670926432808104 2.104771623029553
H -1.0735536076768202 -1.9544586561107178 3.3425884160667043
H -1.345428774904831 -3.1298918534929623 1.949709252669391
H -2.6115158291010188 -1.9185832266885003 2.4459987457817527
H -3.6787896462435663 -1.347220250686236 0.3824998765055029
H -4.445020432856118 -0.0025157941535272677 -1.5085188200981645
H -3.4920541302689796 2.78940232379709 -2.429033760053002
H -3.682952821997714 1.394776265255829 -3.506219638511944
H -2.079504302810672 2.237474741501852 -3.491546279625113
H -0.6586311855207742 1.9783286387751344 -1.7864463018313077
