23

C 2.446087984042522 -2.3151566309566354 -1.5069642553923206
C 1.9243337431468268 -1.751988920769679 -0.4453008479471693
C 1.431342330982042 -1.1070139868591655 0.5894826428147493
C 1.5715850389370807 0.29327436927016753 0.5931823759064381
C 0.5910032726272422 1.1498977152688126 0.5413928654321776
C 1.00996583707376 2.575183899690736 0.5597478269136342
C 0.052316447577106726 3.478076156852278 0.5090257242081663
C -0.8376759308960203 0.7879343714056247 0.47527383948341123
C -0.9933263685279105 -0.6832392275058324 0.4305363752206182
C -2.360697374609729 -1.3139138291756254 0.3943295791336272
C -1.409835870331244 -1.4119661290364367 -0.7887250370171502
H 1.7696036646313362 -2.4221479199267635 -2.327896400911969
H 3.4608084685089846 -2.5902136049350104 -1.421653959349925
H 0.9840569227878081 -1.7684425191435882 1.308779024326633
H 2.0177461770555976 2.8977448054132875 0.6104598975969949
H -0.9897679838172356 3.205740811329352 0.4564737426795379
H 0.2590448047830701 4.543013371517144 0.5173289508360552
H -1.34553870020386 1.2728440482351635 1.3411288385600708
H -1.2574690617204776 1.218819917352772 -0.4700606519270958
H -2.451081974257874 -2.1943398311892954 1.0730153787986259
H -3.2460492264920773 -0.6394881330000204 0.2817797753352005
H -0.9269753367002942 -2.376639996318413 -1.0089525398068109
H -1.699476864597029 -0.8479787375187924 -1.712383144893542
