15

C 2.7682830361715185 -0.19451612257792927 0.6871586485971974
C 1.591916487014754 0.35068154541842456 0.5585800144470617
C 0.32294060398032326 0.5264116923028108 0.2854143759341464
C -0.32400981837450515 1.6824673051567989 -0.17838213569760686
C -1.5031756981372792 1.1149560617007108 -0.2113919618206553
C -0.9516453152993853 -0.13171802108717273 0.26330170622231175
C -1.0900179048363825 -1.3234786999697974 -0.667753740174961
H 3.332301921468364 -0.6252642273084742 -0.10049471088962394
H 3.145939803864207 -0.18269256938471873 1.6753884603683136
H -0.035443657712742084 2.729294416909798 -0.44606753002553845
H -2.5166695765827134 1.418107644332365 -0.47998185819464984
H -1.29569148493763 -0.45692767482765007 1.2784870546848797
H -0.7169187430687586 -2.2090973108172896 -0.0938668645250449
H -2.1662520683417696 -1.5062732935779748 -0.8349063364369106
H -0.5615575852081343 -1.1919507462698913 -1.6167640330524649
