21

C 4.345771492919854 -0.07304207753250555 0.7651462974220143
C 3.1271920786444682 0.4391630659944475 0.685749677964347
C 1.8142405605468164 0.6008377164559779 0.6764646778469644
C 0.931743835300528 -0.582518163438863 0.3747685757204876
C -0.38760239702572324 -0.015867227950010724 -0.1030550660724307
C -0.14116048641135343 0.8175187282103491 -1.3416099886547237
C -1.3410891851234739 -1.080311423370826 -0.43419365848398656
C -2.631861921016773 -0.9740600792848401 -0.1512247184539812
C -3.197195807398117 0.23753460482673522 0.5233170685904979
H 4.698438072902488 -0.38276129379713353 1.7277284114425202
H 4.875152312234023 -0.1306642422285667 -0.17136877174314996
H 1.4126466940481155 -1.2173084149691287 -0.3824372329886303
H 0.8163941587728091 -1.1104083697637999 1.3443946894585714
H -0.7834778138175421 0.6250756445496701 0.7001228275730301
H 0.6656898745846055 1.539682505892058 -1.1391477853768814
H 0.11980181650788503 0.1624490464461889 -2.2023818795525565
H -1.0487620752176494 1.3854312290893784 -1.6001932791159712
H -3.272523932873803 -1.8005104976512871 -0.42628130223370053
H -4.2928069975426135 0.3090612796564414 0.3472013787230609
H -3.036593356431495 0.09806681444407103 1.6101580468012011
H -2.6739969236032772 1.1526311544216343 0.1493877735934213
