24

C 4.0857790873673805 -2.0450168244735867 0.14607037438446885
C 2.865544929640805 -1.5883006438006797 0.2155259485256121
C 1.6768690634050056 -1.0610410889261448 0.226019590422205
C 1.4560719220335792 0.10391597932434152 -0.6275811198926717
C 2.4828654674570685 1.1371148837917708 -0.5413420925974264
C 1.9043543118709354 2.291486804439948 -0.2612575617831506
C 0.4649807374049415 2.1036033517921626 -0.14357142231334102
C 0.1902256366676802 0.818319531091737 -0.3575870324975652
C -1.143810448616166 0.22540916684715023 -0.32772550673361234
C -2.2275910865430704 0.9356186722800457 -0.0778420960424916
C -3.5847052237587698 0.3660784380092313 -0.041090631532562906
C -3.589131058026209 -1.0069435563736 0.5439729610240299
H 4.242183527892447 -2.7856478889974166 -0.6063178416050133
H 4.767508379447643 -1.6307815540070858 0.8353515164335537
H 0.984780245686314 -1.549719293567787 0.8700886696276879
H 3.550899655946542 1.043402839116037 -0.6727966963900108
H 2.421248472881124 3.248627144569729 -0.13512101525926298
H -0.2996457518930778 2.8550947174345165 0.08007512457897771
H -1.2339530673948487 -0.8293505115211829 -0.5178144506146166
H -4.017412928300512 0.39959348875288697 -1.0619632701481787
H -4.2122326010948425 1.0365158457542964 0.5841729892995622
H -4.434199636843603 -1.1059892478056645 1.2489998277656753
H -2.634171857942993 -1.1867122826325318 1.0820733509272453
H -3.7164577772859193 -1.7752779710980053 -0.24569731510872975
