23

C -2.9793197336072494 -2.252028919358513 1.133185775969388
C -1.9178814850892894 -1.7140114407261255 0.6009413156134048
C -0.9873005032138337 -0.9195823701906133 0.09645609630203594
C -1.2930541479672828 0.4974629059096784 -0.10250105432277323
C -0.06287252042991252 1.1738668001406491 -0.6819804867573181
C 1.1139350399385264 1.0684223551963286 0.20513014765756382
C 1.9543245631192727 0.05567970789781427 0.041164708157947524
C 2.5170290041347276 -1.0748985133617075 -0.2709183934168837
C 2.0882552215158907 -2.3153869031348755 0.38481749570314444
C -0.31992643023117195 2.62156283781329 -0.913658895346822
C 0.4276920791358443 3.5710480881267044 -0.37718985084529966
H -3.7577182839792265 -2.616869763041113 0.4960240929032187
H -3.0245774008064497 -2.302320789380267 2.198625897180107
H -2.0813193065371176 0.5763063375131419 -0.8853699987901126
H -1.6180128960465003 1.0025296694408468 0.8060732772766016
H 0.20032479593106728 0.7545537052700253 -1.6755953350552937
H 3.283930606952415 -1.080453925608653 -1.0088524451327452
H 1.9025671307630536 -2.074490179531585 1.4658172223107344
H 2.962846186032245 -3.0282765621081205 0.402752195245479
H 1.2177803735178419 -2.7934744474183524 -0.09612906024233908
H -1.1497745012257703 2.8936688403203648 -1.5444188178338505
H 0.24014942130366856 4.6205152973150945 -0.5460415422021384
H 1.2829227867892918 3.3361772689162033 0.27166765562565337
