16

C 3.0188554458724357 -0.49511748799920163 0.6042737553088932
C 1.7587933109475384 -0.31336707429125055 0.3694381592372592
C 0.5243258707920909 -0.04232459296951066 0.11751412973134091
C 0.04170889249909822 1.2973244013259602 0.1984402617546662
C -1.2206258287398275 1.6114507999500627 -0.05304034368983767
C -2.130532409410037 0.5462263777491111 -0.42198817242364334
C -1.757253803441733 -0.7030890115893834 -0.5158222611868162
C -0.36147619221214894 -1.120523082141407 -0.2482808727590633
H 3.6933912066660093 -0.43719612636971295 -0.17813820104546882
H 3.2978662275344317 -0.6922893531441751 1.5811261691580405
H 0.7338556839547079 2.1097774568078713 0.4793087111957136
H -1.6087051787040543 2.6105413397719435 0.000844838376670959
H -3.197516161436041 0.745276933023695 -0.6440687343473107
H -2.4572623458342373 -1.5054443493689726 -0.7968832578964206
H 0.004446078561099739 -1.7512541326701878 -1.1023328771070466
H -0.3398707970492401 -1.8599920980846116 0.6096086956931002
