26

C 3.1380643923443574 -2.658738998097566 -0.3592353493816254
C 2.0974579447534287 -2.1626002670742466 -0.983864359107945
C 1.1044312779373417 -1.5572917833113442 -1.5742533748747112
C 0.892598560560251 -0.15208262694578323 -1.2820886132135685
C -0.17469191323166686 0.07145041047209705 -0.20863467624654478
C -0.7107267163598139 -0.995311862188505 0.2619435435962149
C -1.7203450354806868 -1.239235920868487 1.2509134029604707
C -2.1015991881161544 -2.485022854723456 1.5572795017826804
C -0.3999012322952255 1.4704266669113657 0.09649117504140022
C -1.189603881700101 2.1078132731408727 0.9182184288405103
C -1.0115591137628117 3.574951524489432 0.8266255665351571
C -0.0955612916335001 3.82707758774937 -0.06887239874947847
C 0.378261013120643 2.5590649559948098 -0.6134074022236028
H 2.9232834928801563 -3.07076485347452 0.5898558037790804
H 4.06692365341525 -2.5818254502791307 -0.8883153621823159
H 0.5440366274478945 -2.1772803560080978 -2.222516726823181
H 1.7900811151087321 0.3785970976520443 -0.9603077894750482
H 0.467692379667125 0.3366811176630639 -2.18008998412529
H -0.2993855073666012 -1.9492342468369444 -0.20221456356195422
H -2.211177414945593 -0.4698811360452033 1.783343153669953
H -1.658658178198584 -3.3397650860609223 1.0674639113154254
H -2.8565224283572737 -2.6528097884214654 2.297623405865331
H -1.8883712516653468 1.6436390418670146 1.585524877689594
H -1.540050488252599 4.3064135950911036 1.3942894388527685
H 0.29024502168552685 4.79587904915519 -0.3958751015388792
H 0.16507816244506754 2.419850910149153 -1.6898965084243742
