29

C -2.4049491449504887 -0.003226317153486929 2.548648888620314
C -2.124139652628946 -0.4953513176235816 1.3389852336826638
C -2.0271972968353484 -0.562681069995383 0.04119193848849937
C -3.126902871164366 -1.1302207370812578 -0.7292384149598522
C -2.7756806805404524 -0.7056191333746731 -2.092132703478063
C -1.6293141211983257 -0.07730665542408907 -2.1463721193582197
C -1.0319305303919806 0.037798274566828424 -0.7420186997007228
C 0.21357065914374054 0.3982020676309792 -0.5850798214076361
C 0.8754198694998646 1.0663761983020534 -1.7284103534129076
C 2.1406701956206273 1.4082579145673877 -1.7547386988030682
C 3.015169487133905 1.1600458966706704 -0.6386153140477969
C 2.3860885054272902 0.4791524335701566 0.5164987952110505
C 1.1117475923788147 0.13474199383819355 0.5368495581332083
C 0.8965114200439774 -0.5902886051605417 1.7869449709375285
C 2.0219485293927146 -0.654471560719032 2.5018498362266497
C 3.066610467936602 0.024455426952554284 1.7929110646908353
H -2.930719561952707 0.8963323548634458 2.5939964913928475
H -2.0201905247865874 -0.6500947494058092 3.287507562626464
H -3.0897742335235896 -2.25093381530184 -0.6914199736610742
H -4.130784367768918 -0.7935040341195816 -0.39968286626814076
H -3.4345573438170365 -0.9135143875669813 -2.9517851791096676
H -1.1837442583437774 0.2927371143117922 -3.0475176562879103
H 0.27808210614936507 1.320256290995331 -2.6143516744058966
H 2.56641262662551 1.8968750071947547 -2.6355698831363035
H 3.893785255179478 0.5279104666867587 -0.9706797569070188
H 3.48512857175723 2.1252350635768096 -0.3259558106402612
H 0.0019786940868329146 -1.0687366894125652 2.093301400718252
H 2.074640924563579 -1.1612772830615963 3.471217361892461
H 3.882119682963026 -0.7111501483272572 1.5436658229638092
