12

C 3.19858955087289 0.2932915279131885 -0.002751815785777405
C 2.0131021685126287 -0.2073021414574994 0.29601871503738564
C 0.7334725167334234 -0.4267534194445511 0.28045715747480066
C -0.5645023791811528 -0.31347842308736107 0.48039718485037625
C -1.4545839504088227 -0.09382498351510259 -0.640190301936943
C -2.7471973288909997 0.017767351878301918 -0.43035095517953076
H 3.652021622204516 0.12396840273143167 -0.976204849676392
H 3.754062779255821 0.882755132041234 0.7024133269614015
H -0.9815707541513247 -0.3816031444576008 1.470628532548112
H -1.0553026720886935 -0.022518305003235158 -1.642016896855033
H -3.128056294498397 -0.054236380749311086 0.5605831232445426
H -3.420035258359831 0.1819343831505134 -1.260836546386924
