21

C 3.6607419639458247 -0.18298273881038293 0.6651602226297939
C 2.5675901401781065 -0.4310279467370712 0.01412896526311743
C 1.5945705926927392 -0.3379619446858606 -0.8403661745126959
C 0.33055852250025886 0.08976516810603931 -0.3014119991256629
C -0.4820724278591343 0.9320829308530171 -1.22677853493199
C -1.6676869357552682 1.3069173354471153 -0.7504868703109211
C -1.9819649463758566 0.8145219881617651 0.6411693692386271
C -1.793378284267016 -0.6864309913174288 0.6025644269196057
C -0.4764639399516043 -1.1333221340705566 0.08934450330056888
H 4.212313739954321 0.7178249955095458 0.6979095562394217
H 4.007476912623363 -1.010962014349466 1.2183465667739115
H 1.6842334343587881 -0.5525894747513305 -1.876314192116622
H 0.41702349025074464 0.6988099111117545 0.6469909132092415
H -0.1542463342370637 1.2287888213197669 -2.2145688800738283
H -2.3522036717198325 1.912792288832826 -1.3083335399596898
H -1.372180834513159 1.3146299849931218 1.40371199652915
H -3.0411174100992726 1.0145941509306768 0.8976805678750609
H -2.616581721581177 -1.0853400530526751 -0.048781576835225784
H -1.9793330717539495 -1.0858783094181503 1.6348786363229804
H -0.6096114939852219 -1.8053197236298444 -0.8072309326907713
H 0.05233227559632212 -1.7189122444440754 0.8623869762559891
