19

C -3.542718708156146 1.0756851604537963 0.4344995703548221
C -2.6476261269978956 0.10187198366065615 0.40192516580591675
C -1.7220208262120582 -0.8104184807404164 0.3014290011228536
C -0.6672648895752845 -0.5582818600226255 -0.7047530415693136
C 0.4514286105400968 -1.4628859851217935 -0.7332888747804086
C 1.271718131944669 -0.5298856446596898 -0.31796459620925616
C 2.7164241415202666 -0.46620366747673625 -0.018171383057456136
C 3.233921001072966 0.6617292667003679 0.3912342536062292
C 0.24477443423723316 0.5178452447333501 -0.23216830709489578
H -3.309471785093962 1.8546204337381602 1.111095014516222
H -4.359847303064824 0.9355981274079481 -0.21945179600249728
H -1.828102213378493 -1.6311139190110528 0.9516421267282225
H -1.136683495141246 -0.31889974431498 -1.7042493966533845
H 0.6146788649759288 -2.4995704022237684 -0.9846901187646698
H 3.289255946393341 -1.3537408717443289 -0.14874347145604006
H 4.302172136666115 0.712980051735264 0.6140480080907763
H 2.678993504778725 1.5649197088884204 0.529590713034563
H 0.34741588081203745 1.3390791533453736 -0.9766015568777934
H 0.06295269467817546 0.8666714446511345 0.8078789156636146
