30

C -6.240350584477714 -0.6227499599455987 1.9540553914194654
C -5.15895147407636 -1.0892964953349147 1.4018439242695744
C -4.109774296431348 -1.3735622045710982 0.6434986457283478
C -3.912314284092754 -0.6198421179558872 -0.5531886926424369
C -3.027953760563274 0.35955974981307126 -0.4739619712446146
C -2.0546735584133677 1.235698584224456 -0.3256396100408752
C -0.7110058464537312 0.7498781076551454 -0.6064279085852342
C -0.5533058672425979 0.19282349299903026 -1.9955621711029343
C -0.24200380547108305 -0.18783400751625715 0.41873772230684286
C 1.0505773774255491 -0.33637366171841576 0.6208107924840068
C 2.0148855805056742 0.41879040361100656 -0.16106942121475545
C 3.3123559128383313 0.26982977463221114 0.04162895077588187
C 3.9616479882405327 -0.5965655492799784 0.995876324651228
C 5.264946017079133 -0.4172220609473155 0.8452010210827337
C 5.543075095690057 0.5575043098300501 -0.19549791950450698
C 4.37928124776203 0.9621338747400983 -0.6692002169244914
H -7.176371550895739 -1.0828701144805182 1.7203462623302577
H -6.20157609516489 0.20715774433096784 2.627943405232288
H -4.348610569207921 -0.7017870224574014 -1.5073680275958268
H -2.39590767814803 2.1840754186913327 -0.016750772790353103
H -1.49854422778615 -0.2695173845566725 -2.3420268576292136
H -0.28904766083862676 1.0088514784311355 -2.694785072559717
H 0.2083396131541715 -0.6103882307547998 -2.0086047027844933
H -0.9741050204923407 -0.7470490278089256 0.9971495733558198
H 1.3748063384137401 -1.02847013817931 1.376740205037836
H 1.6632036202257254 1.1140487328948026 -0.9213210567433711
H 3.4425379509729765 -1.248891862459011 1.681503221801813
H 5.999035225428756 -0.9353887032498758 1.4271745641354086
H 6.504782737735476 0.9174084202175781 -0.5517679288346062
H 4.175021574281365 1.6900484491451055 -1.4598052451085777
