28

C -2.4979134613657563 3.128461856013726 -0.44952066782329264
C -1.5708778484754502 2.3695743893840997 0.08366710790529944
C -0.6556252791219183 1.5472678137412188 0.5421183531580529
C -0.400266438245999 0.3471131880363144 -0.24497196903533808
C -1.642852734889493 -0.5188114599079322 -0.22495710898768181
C -2.148677478527255 -0.7931547463610119 -1.6192965675937663
C -1.2582342283710894 -1.8004610391728497 0.46838567220096056
C 0.2242350480817274 -1.8786639189493708 0.16067682813000023
C 0.6685898881747665 -0.46523782029468674 0.49816963458484115
C 2.0169285395702747 -0.1569435113290344 0.022012250325679647
C 3.000868575081513 0.010395771504088814 0.8831894235185797
C 4.4043030970633295 0.3282718123188971 0.4507890461986574
H -3.4809850524666857 2.91247664791508 -0.1300675560723137
H -2.13578922404772 3.8534684437997635 -1.1278594887060374
H -0.20600326997479598 1.8635389854842492 1.446218817276157
H -2.469297762240191 -0.02954301354812791 0.3408114919156193
H -1.4578046033692693 -1.3795590401494586 -2.2276281711917205
H -3.1029447504162877 -1.3332538252764443 -1.5362231571185572
H -2.277882514818395 0.19945052310040715 -2.1316471988233485
H -1.8095404712194187 -2.679639087290176 0.07956071602482111
H -1.353766766690623 -1.6872375949811216 1.5663733502095614
H 0.7396798913629606 -2.611550793623128 0.8100963738143794
H 0.41808348209539653 -2.0325163000743682 -0.909804546581373
H 0.5284857521730136 -0.310503843561037 1.5839713049041935
H 2.216813783228042 -0.06434136058249923 -1.030503774021122
H 4.703277649752838 1.3535036546292327 0.797570321647023
H 5.122730975076958 -0.43337489274542357 0.8493654505445375
H 4.424465202578725 0.26126916191948424 -0.6660361254347713
