20

C 4.848099406939705 -0.31967070803832576 0.24150327280385323
C 3.7363206702142855 -0.6931447684369205 0.8281843240509449
C 2.5705190753713145 -0.996738500891509 1.3679004790449947
C 1.4647036550952526 -0.1846801661641848 0.9944985128269065
C 1.1670976586149402 0.20143941565759266 -0.2583068078946749
C 0.04421612752539923 1.0049179155820722 -0.4924865939130904
C -1.0659531361434975 0.34362019506750785 -0.6037133350231757
C -2.198513926972143 -0.19101114030283625 -0.9327720348263218
C -3.048739133660566 -0.45065388922122734 0.19018014175634199
C -3.9315046257211494 0.66960928666573 0.630350074103989
H 5.037555957192084 -0.783127824633605 -0.6894695929663449
H 5.410584469955503 0.4017564068302262 0.7822377467421533
H 2.616122725134423 -1.826424220108923 2.024088169788173
H 1.8794845630033268 -0.17755759337313493 -1.0086969029356014
H 0.11139379631161075 2.0554907580651447 -0.568871101150239
H -2.5158377071978264 -0.43303085148914333 -1.9088490247018421
H -3.5293577769460347 -1.4308937431244235 0.19027262879047263
H -4.031256754484492 1.472115857554451 -0.13140368695907573
H -4.951829083238474 0.2602722433345579 0.7888589206037484
H -3.6131059609934133 1.0777113270270375 1.6235291997450523
