34

C 5.7895589048301686 2.1122550851889557 0.30754026290481606
C 4.749226264646686 1.519584031774078 -0.23744435653047585
C 3.709900364944438 0.8644397374029557 -0.7043025062379159
C 3.2320310689124745 -0.22354014900358316 0.06428405113819133
C 3.7253495647790773 -1.5900088275030961 0.16828613819868363
C 2.1782944232002905 0.03175490326239622 0.7989091727791646
C 1.0544481838611737 0.2550554214433317 1.4437038871311736
C -0.1297089638016417 -0.007385616953775821 0.7312078535622145
C -0.3523188408555546 -1.2808282477896817 0.44485407509798086
C -1.344382241101679 -2.138806361958719 -0.2346865399485273
C -2.674213207638802 -2.3347820046922503 0.3973676729139384
C -3.590943538493473 -1.182785788550068 0.07678865506903465
C -4.808854423949932 -0.8156406356155187 -0.23161399287229967
C -4.432070412146111 0.630089453277055 -0.29320946391049885
C -3.244331631214264 0.2100933468586376 0.013486206443437296
C -2.2623117405494773 1.2393526443689395 0.12859454003337284
C -0.9643369106332087 1.183721434880445 0.42399903413124873
C -2.975543694615313 2.463577375789181 -0.15299040517096266
C -4.2345695351993795 2.0910754734148584 -0.39601461943393523
H 6.721603101346184 1.7159231228567993 0.014195782370924658
H 5.5469892709627295 2.902471196120603 0.9639769072669877
H 3.3498721077011044 1.252660219524931 -1.634825929267296
H 3.9167184456221684 -1.860915907011536 1.2259945596850323
H 4.659129273881534 -1.6750557895080078 -0.4348597039321598
H 3.0147939354855056 -2.3235468322037134 -0.3090621072961874
H 1.2301878035827192 0.6081278098786164 2.428222195719206
H -1.5242162605163536 -1.7923762083147117 -1.2810021390270565
H -0.8759478411508138 -3.163442569341705 -0.38641383794836637
H -2.557450165063612 -2.452758795170075 1.4974628439658808
H -3.164423964019652 -3.230851537229843 0.02524755581700371
H -5.746672491958076 -1.294265699666143 -0.3924272904235453
H -0.48556301823528436 2.1142078393606716 0.4405144292982318
H -2.4811655279717453 3.4115139118196804 -0.13640874231260694
H -5.029078304642345 2.761087963290499 -0.6403046829037663
