25

C 4.495167006140054 0.9961029934145831 -1.3214521223421853
C 3.3712312812573533 0.40009154425413634 -1.0359921428767356
C 2.2398972028514894 -0.1553305519346212 -0.6679402095100967
C 1.961778163865323 -0.15495960286913038 0.7714978585799097
C 1.271061365638572 1.159860236478732 1.100492865590503
C -0.15799655605826213 0.8238436368893112 0.7361823109489373
C -0.38914692402679313 -0.45929016356255586 0.7722636648806612
C -1.5878434601178575 -1.2181667542450918 0.503603673429843
C -2.779677369519482 -0.9120094265442835 0.154383184946065
C -3.3948233531374807 0.35649387031574836 -0.11182173745158239
C -4.703447440487013 0.42828483150111596 -0.4748102270427722
C 0.9109151139838331 -1.1538072866114524 1.17938210259142
H 4.434564290824362 2.04373196698115 -1.5047538049875158
H 5.3450022728576885 0.3510337353026268 -1.3344349497610015
H 1.6657425057389132 -0.5370775208777994 -1.4651934156973212
H 2.885337449399666 -0.2777857595546878 1.3384367263520094
H 1.6484991001204519 1.9581854937531151 0.4382930972336119
H -0.8544762595567665 1.6168065859784428 0.4846689941990008
H -1.4337788672627747 -2.339990789629756 0.6325873630743063
H -3.476141754426716 -1.781375318802068 0.031450761996417505
H -2.9141503672193725 1.3079201043908992 -0.05417543976872087
H -5.246229476658147 -0.4899327893073396 -0.5519874346310203
H -5.201407844911942 1.3460925222477176 -0.6818649063811292
H 0.8872302548669342 -1.195540923647775 2.2803198749358016
H 1.0226936658378816 -2.113180633920936 0.6772347742058072
