13

C 3.8806384288783597 0.3648167229354641 -0.02364763031915685
C 2.6661955105135915 -0.006387733805758082 -0.3652722904937234
C 1.4390714139760865 -0.28169815165384726 -0.6189704566706437
C 0.16241659605946732 -0.5265766380232446 -0.5544166099544146
C -1.0800207689475072 -0.7398211798949754 -0.271502306220967
C -1.9862068413973384 0.3407155080050829 0.14945461101118018
C -3.2478101449856442 0.11363008391411267 0.4349101717802568
H 4.236313715100004 1.371949143081726 -0.1989183344341888
H 4.580749216057078 -0.31258679986427473 0.44645842990471185
H -1.4948193242153225 -1.7352536048442064 -0.33751479766971615
H -1.5690994260454108 1.3348451794853426 0.2146378083993262
H -3.8771700796327795 0.9360112223015628 0.7397623632296134
H -3.7102582953607586 -0.8596437516369437 0.3850190414377214
