13

C 2.8720143563520084 -0.5166580161426376 -0.09534929152020571
C 1.8548304428973301 0.26892165765929144 0.11896985334863497
C 0.6560736016550601 0.7449693196883796 0.2942792798790838
C -0.5094671598691328 1.1642425462922632 0.6960178876410561
C -1.7180249069183198 0.26607375888285173 0.7064833132446803
C -1.9020636929923151 -0.32615383384391233 -0.6941815957896219
H 3.5393032375040416 -0.7732136891861936 0.7151603206854448
H 3.069425879225848 -0.9242406773363337 -1.0744091989459523
H -0.6586258660509723 2.1887351487983913 1.0432339984626877
H -1.4211902459030126 -0.5975975394442963 1.3659484971078137
H -2.241059461890578 -1.3924449334001505 -0.5967040091158076
H -0.9136335519552725 -0.3921276578411332 -1.2202327780536835
H -2.627582632054707 0.28949391587347595 -1.2592162769441324
