31

C -4.848226380926946 -2.754913549177575 0.4951854590298985
C -4.6130239465990135 -1.5129184343508362 0.8124570883442581
C -4.268672051958841 -0.2880442684306726 1.0292939439259947
C -3.9252013570885884 0.9666790588019779 1.086376358227475
C -3.27554986274145 1.6829711500019138 -0.04963875589739982
C -3.7898859638837328 1.0780293769617724 -1.2945017549178326
C -2.7697422835452925 0.5051546355954655 -1.8990678330621742
C -1.524324489317316 0.6571222150419568 -1.1610254517918885
C -0.21327603039652082 0.15134512883472825 -1.5383922117378583
C 0.8312508566360616 0.36500474754669077 -0.7699203842746016
C 2.109053917657405 -0.1518974757317671 -1.179247892914812
C 2.8133334024146155 -0.7169621617494167 -0.23935011829471955
C 3.5050650588935524 -1.174284886253608 0.7651140693893229
C 4.330766847963742 -0.20208856044018744 1.4834230385806864
C 5.595924618720229 -0.014197387101061394 0.7560391927725864
C 5.922650724268485 1.1429696278679293 0.16378307536130027
C -1.8315188190924838 1.348650661283499 -0.07907147925912447
H -5.255017613814704 -3.43835283322113 1.219618808111291
H -4.6491042285381745 -3.148709106473986 -0.49253271588935615
H -4.109082597635405 1.5339996433278391 1.9860472857346823
H -4.838185584249871 1.1029027414706951 -1.650822615002694
H -2.8337892373668034 -0.03639432941708989 -2.862432851893507
H -0.15236924177106168 -0.40314923869845914 -2.476598710349992
H 0.7046733736262099 0.9183902360982719 0.1413450840521787
H 2.5635975720870388 -0.14159643510192688 -2.126195007029585
H 3.3810014777679265 -2.2057451996324264 0.9397192335223596
H 3.8118851029787946 0.7176944929411768 1.7568700306427965
H 6.283352070984616 -0.8506965604059434 0.7031841540374861
H 5.278347319899061 2.0024440838278155 0.18579416235856777
H 6.85628491817466 1.2368295091485573 -0.35665885288160554
H -1.090217573146256 1.6297631174357308 0.6907974748476231
