27

C -4.361959455020146 1.2981631282432207 0.3100921378221103
C -3.9456255330688847 0.11289141112278088 -0.09267496570014891
C -3.443606252456603 -1.0404543805508337 -0.47452613032830837
C -2.024949133124099 -1.1829792894102282 -0.3621961294985053
C -1.2500384092943186 -0.5445499614966218 -1.255977280749374
C 0.2106254289840525 -0.5064460378275423 -1.3870774027176689
C 0.718619817119545 0.7559103627377566 -1.922074133945074
C 1.5801992832663 1.2741588386737375 -1.0516643858483568
C 1.6775234660450946 0.38000454278717866 0.09717170465165317
C 2.510653802986535 0.5761584066149547 1.2705494840727867
C 3.763155961857362 0.8495706340741724 1.0317825355831802
C 5.020090627843736 1.1228201121581227 0.7178839289542148
C 0.8851024890502899 -0.6521674546228092 -0.08937056080696303
C 0.689768025667732 -1.7624658072262134 0.8797881458769817
C -0.37536536358267264 -2.508492714401435 0.9594620029225142
C -1.5737236428909185 -2.024650229857609 0.7381229302302079
H -4.393598510541224 2.0297584655736434 -0.45048080588979866
H -4.604003104771135 1.3461993617017405 1.338351258432155
H -4.163813823917433 -1.728353168636909 -0.8221792023097176
H -1.7905526574638724 0.02384215313972116 -1.9841261826235808
H 0.48936121850846886 1.2653617136882762 -2.8628860540996395
H 2.1319292041490563 2.195569405420172 -1.1443545919263776
H 2.2397595012009486 0.5273590244905035 2.2862745028858753
H 5.220466743385574 2.1516912672317394 0.6059082509414361
H 5.6346315091769235 0.2729622686039233 0.6256336907668092
H 1.4970963835658504 -1.943938437159004 1.5581531439121603
H -2.341747576676303 -2.2879236150724758 1.4804141093914465
