13

C 2.8060058518844557 -0.5297594239451973 0.7865558408781045
C 1.6516606114305334 0.018530846709071253 1.0620688150028508
C 0.3956868416570572 0.4352298053101442 1.0489848846922634
C -0.10062795219578446 0.952354779736337 -0.22131450602781885
C -1.2255969184281055 0.5686073886573619 -0.769674783219148
C -2.1263521879480023 -0.4356230423555382 -0.16458387078225692
H 2.8683400654402296 -1.5926169553853453 0.6458587201809951
H 3.696586165253034 0.06283311005452374 0.694574723433368
H 0.529997902491121 1.691236895282121 -0.698591735758858
H -1.5215052584687565 0.9980635300680188 -1.7085257492102721
H -2.215124537759934 -1.271932318853451 -0.9094916945725592
H -1.6320647853612988 -0.8769485797136486 0.7397549403392111
H -3.127005797994544 -0.01997603556440513 0.06242800237121486
