32

C -3.569730303113692 2.697882706087699 -2.2835999300451384
C -2.326720402852263 2.341621785686041 -2.487810778868201
C -1.09088644985291 1.9364297737093945 -2.6179630104206075
C -0.6203408431049507 0.9940276445024722 -1.6223476080370256
C 0.5780493071132363 0.9613330292209786 -1.0816122735033054
C 0.6661013498235431 -0.14908435867941947 -0.10814404170230175
C 1.8902623972032098 -0.40117546232843876 0.6279415367900538
C 2.129512271996699 -1.3260275185329473 1.5090383392501858
C 3.4276341949578435 -1.4743502052149355 2.189480549830681
C 4.378772672489118 -0.42889839390276396 1.7166224575467561
C -0.4977982597669665 -0.7636020664811469 -0.08867502093468103
C -0.8831553978414356 -1.9374626983631411 0.735642833720531
C -1.422152164490455 -0.10282293945489998 -1.0419857275891604
C -2.622878264867289 0.4586826996591621 -0.3753054117928488
C -3.790400441057478 -0.14827644595399517 -0.33286583151148347
H -4.293660957299912 2.0820630702374245 -2.7696399499539464
H -3.699696580569756 3.545921583846852 -1.6653844598096401
H -0.573633376944085 2.345732909841395 -3.440169653155035
H 1.3396327180430807 1.6796335183662345 -1.360771489027489
H 2.7470900566352907 0.26976487175893304 0.42932573482114106
H 1.3619954783885193 -2.0330072584123235 1.775454093586398
H 3.3264581854046225 -1.4803886879086576 3.299955668150401
H 3.8549562075555577 -2.4835478025403934 1.9165364975146135
H 5.384201908781963 -0.5344586465337755 2.223670182313717
H 3.985115789627207 0.5821636923893295 1.9706216726314743
H 4.591208849309562 -0.4820597396359075 0.6307307984469176
H -0.3347741323809354 -2.8625450159087507 0.4663606647534622
H -1.9658700200190498 -2.182503007350821 0.49690968032328564
H -0.9131869908428661 -1.7296688871366466 1.821887822955337
H -2.5241505468075562 1.4236520493588942 0.10140188264423768
H -3.909900841533953 -1.1036923720150427 -0.7979710930102105
H -4.622055413982044 0.304662171684569 0.1626658640845594
