25

C 3.983188724974109 1.9202698336529374 0.6280108011811877
C 3.690506016657341 0.6896304464232822 0.27185572524351065
C 3.2664966622073277 -0.5070320799514976 -0.024093667102893308
C 1.8553032842298505 -0.8050870067534474 0.16648431101713068
C 0.8715127330237245 0.0947516454458981 0.3804179405397167
C -0.3928312078311436 -0.699943096805097 0.5150416288907903
C -1.5888273545944516 0.07123031512516464 0.2356713920094409
C -1.8304719219016312 1.2882679241642563 0.6920593624133046
C -3.1242553923146135 1.753717886391775 0.21163071629683633
C -3.6546004755658825 0.8276878529317783 -0.5250139340350354
C -2.747471885535469 -0.3236675118160609 -0.5868471856098533
C -0.10938411428525112 -1.8057951771276781 -0.46403591741294414
C 0.24209473811585952 -3.124910429248293 -0.06897109240018275
C 1.2640947097065218 -2.129650934400511 0.16776562545305315
H 3.870414177724467 2.62782392459581 -0.15823446601529328
H 4.284603324468172 2.0395374288843398 1.6330379971395454
H 4.007387608621566 -1.1601856667207322 -0.3823771473754477
H 1.0502153519849668 1.154247428135886 0.42951443217331803
H -1.1930821940805643 1.8969845385489414 1.3337253925034183
H -3.5965513682937473 2.730871858574219 0.4263462935141555
H -4.633155575359246 0.9444608580052376 -1.0020797322208455
H -2.448483033616184 -0.6010456727258547 -1.6257086442766366
H -3.2405982546160907 -1.1929189799587905 -0.08333275246558991
H 0.04875988446225574 -1.4902861513761478 -1.5455835966739426
H 0.12513556180463473 -4.198959233986727 0.08520644194212305
