17

C 1.75375516594933 -1.9453184026410608 0.952211746342167
C 1.242803638184488 -1.0899626898407169 0.0981435446724889
C 0.703934219452578 -0.1820673531413285 -0.6974270038893817
C 0.0968939146176209 0.9338756438917085 -0.05246667024179684
C 1.0365824032258986 2.0190560587470596 0.4752602756300347
C -1.1544846153486303 1.090855044827584 0.11403165582533535
C -2.2360376933218857 0.26922404483313134 -0.26149602755840434
C -2.1794677043794257 -0.8697413876073701 -0.883141548847815
H 2.7615702389337504 -1.7575221934737244 1.211013605041234
H 1.08449766310379 -2.704358638939109 1.2637878836453587
H 0.8015812337108522 -0.4076554971989608 -1.7274678710453253
H 0.5291507959500102 2.5754971588649838 1.2951790527304108
H 1.9289140914802172 1.4891216360281476 0.8632182938181137
H 1.3065164078243425 2.6954807297858907 -0.34264235309597674
H -3.256918645875098 0.6515290778807985 0.012217864009122717
H -3.1155603855948564 -1.4032183993223675 -1.1117709658927695
H -1.303730727913118 -1.3647948326947643 -1.2086514811428686
