39

C -3.119656431667928 4.792988658822608 2.2877020680529294
C -3.0729604944117894 3.680469996580008 1.6003409806725666
C -2.9385364502926077 2.5449794772241763 0.9491713392765042
C -1.706663833359469 1.8051204878292737 1.1835693592785994
C -2.005600611752094 0.34609378643587857 0.9619325416986967
C -1.0241532648217933 -0.2428180814251967 0.3124240026556251
C -1.0506590839408394 -1.6808585463554016 -0.04411893429723397
C -2.2093512750235065 -2.5225409475063545 0.327256090043879
C -0.04958671117387744 -2.234347016211718 -0.6944636148129643
C -0.10972955613710093 -3.6693441648912555 -1.033155604443627
C 0.01655761682473601 0.7378812641712983 0.051867329138598144
C 0.7654305791023712 0.5270349270404427 -1.1982683300995736
C 2.0708395193875826 0.38698338383563263 -1.1244722620037022
C 2.8388979223828836 0.17764062043971982 -2.3381738554277693
C 4.145310120838318 0.038369824911769324 -2.255447101203236
C 2.759632204273488 0.4367857850697256 0.13924938152616986
C 2.8735075114830884 -0.7038720262716095 0.7770491052618071
C 2.9455800188632235 -1.886750034813403 1.3507627570947727
C -0.725260948905957 2.056650828085967 0.02080501781296885
H -3.554611805007384 4.7067318552504185 3.2518373523205035
H -2.713700439367467 5.6428299745943935 1.7910714259225948
H -3.7586676572358324 2.312464523996251 0.3279338458124853
H -2.94020362619727 -0.10302987397462378 1.3218628877739211
H -3.0489767648214823 -2.4315501368216985 -0.39410462621660125
H -1.9546200775271942 -3.5781005443586213 0.424561760341496
H -2.610219895569825 -2.124091695039601 1.303073363580952
H 0.6634607289190618 -3.9324367266315456 -1.809608556807458
H -1.1303181619666676 -3.8879463419738443 -1.4280193066911564
H 0.052336484558517526 -4.285038337233985 -0.10282150381819773
H 0.7377333330260402 0.8018502461528971 0.9228884329621498
H 0.31364218919561593 0.47981924045927 -2.172640541352846
H 2.3811638046729446 0.131603132446651 -3.3063728085596553
H 4.676223849719831 0.07492991555628054 -1.2992014823776945
H 4.76493323379993 -0.11896979133020152 -3.1203436932436053
H 3.1919290110478453 1.2600912631487171 0.6367303558731565
H 2.1316288426091554 -2.113038550337668 1.9916682754879824
H 3.8033644746001967 -2.448890376904478 1.0938988289401388
H -1.314997688344118 2.098106833881931 -0.9079980947466929
H -0.09369666778032072 2.924197166146054 0.20155381457386615
