11

C 2.597971168331147 -0.15257192620397036 0.5229978769234968
C 1.4705530825681477 0.14297221181108144 -0.08259237418462967
C 0.222037679318978 0.3343508575600123 -0.4082965179648659
C -0.706955216677829 1.113791123889408 -1.1583857971010987
C -1.2168950335929432 -0.013071320045799913 -0.33029744633230856
C -2.211252719546825 -0.7608796885473516 0.12851039841582046
H 2.923172536994261 0.28007593361089433 1.430421856804466
H 3.1908082603104013 -0.8879606078833981 0.0220087625103643
H -1.0329213974526736 2.1309623135652096 -0.7998253026056888
H -2.005705164204145 -1.5831209249444183 0.8126830818943223
H -3.230813196048363 -0.6045479728123075 -0.13722453835890172
