25

C 4.619335733853695 -1.2400769319906282 -0.5293151889706108
C 3.346828067089427 -0.9148113016521621 -0.5702922978925691
C 2.102534884409025 -0.500648304295458 -0.5693649646028229
C 1.8548706854124413 0.8024206518432769 -0.04040031914590759
C 0.7421889614598709 1.0318441920780463 0.6474941222090782
C -0.27463605920171075 -0.01902361035883216 0.8977251933739451
C -1.6328935857332565 0.36521742331457524 0.3116214045966951
C -2.668968381923697 -0.6757467657254203 0.5512413524368284
C -2.5205665029787014 -1.887203318200502 0.04096640234999997
C -1.5831827382733685 1.0777747365361714 -0.9891556994767634
C -2.0694166001997742 1.770679056355846 0.2840852090947766
H 5.169496872999878 -0.9700655820117601 -1.3886436905609234
H 4.918959035219335 -1.7270604597265575 0.35872498717831103
H 1.4168221757544568 -1.1978369410820229 -0.9697561887895061
H 2.5321843708471445 1.6120337995680996 -0.17416614276654957
H 0.5153992815365793 2.0201189017789813 1.0703223905491535
H -0.009845140501035868 -0.9849672029722734 0.4726413863119658
H -0.4204046775276243 -0.10288497203593137 1.9937343259169242
H -3.5357939027137166 -0.42192715661322194 1.1451698462115518
H -1.6700971874890886 -2.1854442934989784 -0.5589773417183538
H -3.2825278930665727 -2.6322466579399464 0.22438303014154648
H -2.346938441082075 0.8856234985834712 -1.779353276817063
H -0.6076227351691411 1.4140460259325156 -1.3605021757108307
H -1.4271561903915733 2.535204538701992 0.719199257374247
H -3.168570032330688 1.9449806734107418 0.3570553464004975
