20

C 0.6372167723794692 2.6886342579667986 -1.2638951847233109
C 0.6108984789290889 1.8244543713542423 -0.25877783383789416
C 0.529047896607962 1.0086318758386683 0.7492890548753817
C 1.8008634520909512 0.4527272767685349 1.1432693081528988
C 2.2586157372379625 -0.691962327188908 0.6882913556880599
C 1.482669095598576 -1.4884806558618306 -0.2695932752802476
C -0.7794188242572961 0.7804356979407984 1.3149013038903636
C -1.6528368681874623 -0.13009340354671992 0.5575222667951045
C -2.465648385361495 -1.2513782625593317 0.6235913441791591
C -2.307222079176023 -0.5847353171320125 -0.650277282575922
H 0.5106713949154454 2.227754377883409 -2.2022863554447336
H 0.7788908700569818 3.6900570690763166 -0.9709247153182673
H 3.2191823789542147 -1.0649760533125596 1.0154816297953764
H 0.5818259953970867 -1.9451402153068427 0.2066901847563042
H 2.089727023508071 -2.289557243795303 -0.7104269943922277
H 1.0950076800178479 -0.8522376936589072 -1.1180628083588988
H -0.7619874094399193 0.5678206442218022 2.4048558880466198
H -2.8754687461873445 -2.0257793491630878 1.245241498798267
H -3.133486542749135 0.059826669408189946 -1.0625237855773144
H -1.6185479203351296 -0.9760017189332719 -1.442365599468754
