35

C 6.018929357788421 0.4552955154211323 -0.12048107075254523
C 4.745205843120415 0.22549960258216795 -0.10107900452288043
C 3.471811236498021 0.03548354629921638 -0.1465688741676376
C 2.9658252645340504 -1.1159891236487995 0.3382921932497716
C 1.6061927759474997 -1.3729830192607566 0.31478157550054575
C 1.0956162737848032 -2.6357903538934053 0.8512461067590408
C 0.7341316217908879 -0.43778149206592254 -0.21458049159089815
C -0.7134396439016779 -0.7456638962181522 -0.22347003214522115
C -1.6199248297022624 0.044605088915573396 -0.6891993127418065
C -3.0155072310974926 -0.08786526217717731 -0.7746973998625596
C -3.6665811542445175 0.962491821922534 -1.3310672674615673
C -4.291233431319152 2.1122132805247755 -1.538139972743964
C -4.595160075133519 2.9659097892517905 -0.34866140630874476
C -3.863405007487192 -1.1524348905687467 -0.3699916236064914
C -3.6755351280696433 -2.3058893922415984 0.18724939796943418
C 1.2576915455570772 0.7229042399234497 -0.7018949706031599
C 2.639002680123787 0.9549334880624241 -0.6644255449080408
C 3.06196311489967 2.1274809988518903 -1.1679658175633367
H 6.57395571939144 0.1595100141946293 -0.9412736963815521
H 6.424709687418116 0.9329139010948236 0.7019722408464615
H 3.59374923222711 -1.9144146572061485 0.7779095504937051
H 0.580115791088144 -3.261012097290703 0.10824525769782607
H 0.31517608713716705 -2.3730744946095736 1.6217496264467086
H 1.8773813406492146 -3.183294011271119 1.417407595817407
H -0.9759805860160052 -1.6973548406529901 0.1944799420561739
H -1.187512659474512 1.0070576008120296 -1.0992770077093053
H -3.7730526558554836 3.649021474511395 -0.11493272050031166
H -5.51719742176305 3.5530056644351466 -0.6195339125497075
H -4.905800795250592 2.3363286773215974 0.5255454757247872
H -4.991321626976479 -0.9861314025492411 -0.5742003762827055
H -4.582918846270408 -2.9478043546953336 0.3887881461309002
H -2.7299320366058026 -2.68133100574149 0.4634911526907725
H 0.6507587524498418 1.4915755281527803 -1.1252848046939123
H 2.378351519975257 2.8511728043860964 -1.5785287393254246
H 4.113935284786268 2.3114112574286785 -1.1428474865844336
