14

C 2.8591463713549974 0.6038986082485736 0.01918243989625101
C 1.9367836191727092 -0.05385427961638354 0.6453944381542356
C 0.9297550169035673 -0.7273579911097726 1.1066510437369255
C -0.3248311142712036 -0.7692049460979561 0.364385914930378
C -1.0155989975708248 0.5832034599749407 0.5586772353676156
C -2.430961447545261 0.5653352811779204 0.08388937931701883
H 2.9491784392717055 1.631476363848112 0.2018130050168527
H 3.5018762221238022 0.12614655219833354 -0.6566731925823216
H 1.0355821100186018 -1.227960636817222 2.0014869436887146
H -0.08125269591396606 -0.9048982855082887 -0.7148470275222333
H -1.007555196255384 -1.5532710916624382 0.7237877522185082
H -3.0888486433890843 0.37751426366849855 0.9508406254028139
H -2.6405288258524933 1.5793431970412464 -0.36821630716717924
H -2.622744858047208 -0.23037049534551057 -0.6779844904606765
