33

C -3.70662194883192 2.7445586065389036 -1.0392690578662067
C -3.8303960942237736 1.4402338339689578 -0.9050135227713356
C -3.850338006452072 0.14724914555733115 -0.7405019271411177
C -2.599036518524911 -0.48232674913304224 -0.38305022937512123
C -1.446696313349918 -0.2106191443421043 -0.949344059789778
C -0.41094085347717096 -1.065025256332444 -0.303019601598761
C 0.8543692949724122 -1.031018780756598 -0.6348630411769343
C 1.9637138174389381 -1.8051512497004127 -0.0922319072854028
C 2.954535918658193 -0.9779870766488064 0.6470535908984031
C 2.862245739708379 0.31889426872598936 0.8321831100255075
C 1.740830356622987 1.1343073380503745 0.3207963542420512
C 2.280571776779396 2.19207388323701 -0.5872101489528889
C 2.842803542755168 3.2547624114415563 -0.03595832270298662
C -1.1157043493160324 -1.8517126493584097 0.6966674973389526
C -0.5556761517130407 -2.8583832841414574 1.6336320874222503
C -2.406927322809205 -1.495475241844608 0.6360081333174781
H -3.8707770299731012 3.299229014303318 -0.1497705235545597
H -3.4593226178359484 3.062743721059367 -2.016487066101705
H -4.794709813133974 -0.300129901926933 -0.8897670624267309
H -1.2849547549335303 0.5014575807214818 -1.7375383388668049
H 1.1320663993583153 -0.3295283892129575 -1.456673240519156
H 2.5491045225595954 -2.2104210370280164 -1.0032418568275732
H 1.635859562392257 -2.6543120901815533 0.5134273061067448
H 3.8380840971982684 -1.5073371889048128 1.0720456915042644
H 3.6573233198747683 0.8407930126604276 1.3979874686665328
H 1.2218370161612393 1.6123504351835591 1.1852652271500486
H 2.218161268882249 2.100514703520845 -1.6584131720633486
H 3.2439658782017666 4.0397332340195895 -0.6644912148645955
H 2.923351304152236 3.381086692277046 1.0339893210565125
H 0.22182657736037115 -2.4156334079773996 2.2978118065255626
H -1.387370823329722 -3.1650692714284587 2.359775093739473
H -0.25952896590661567 -3.7900339236964697 1.1415116204557791
H -3.1616488064833583 -1.9198232289597446 1.2656909009555948
