18

C -4.8665347201992 -0.5184104485312592 0.08876057966765816
C -3.721725886091319 -0.21983583447405658 0.6293271945002393
C -2.470647244196682 0.16000429865351784 0.8337825362740013
C -1.4832185200424903 -0.018327169483060537 -0.27597341031583994
C -0.3863017415147871 0.9569589320943331 -0.007389570105017341
C 0.872586004677531 0.6220076571581802 -0.0950192895128159
C 2.0516074567940823 0.47349389484036025 -0.6001717239987022
C 3.3313183945862535 0.4404134501747593 -0.7975669340332997
C 4.168217315786394 -0.5788759148534292 -0.09795075507934589
H -5.493916250794119 0.25966320526205483 -0.29518301282201076
H -5.19589234105676 -1.5342449330006889 0.016404316630956862
H -1.130346435119491 -1.0631608171203513 -0.267230710244435
H -1.9195303912283586 0.2658663408264701 -1.2560374319876892
H -0.7094804978687067 1.9600057372293755 0.26475674974151114
H 3.8059808060561062 1.1531947133158993 -1.4730606690404726
H 5.2264089066789605 -0.46215408477974446 -0.40966648480239404
H 3.76783581377763 -1.5923737006996534 -0.2538518787413842
H 4.153639329754779 -0.30422532661278 0.991461206148186
