21

C 4.593720942204122 -0.5726642150447745 -0.43120280316226556
C 3.6104619348312967 0.2528772466208604 -0.23083907689898547
C 2.5722172889832806 1.0526914501343814 -0.09966519725962854
C 1.4433151407300027 0.764788385555835 -0.9303391126113388
C 0.33559181194021487 0.1595617052154449 -0.49945916689386666
C 0.19449065629955373 -0.26800693706087886 0.908598421122912
C -1.0190297318981727 -1.0472619331594315 1.1019537859389075
C -2.013812014964064 -0.7813518123138978 0.27864462141684904
C -2.9797461049538434 -0.3563290808240171 -0.517676467529822
C -3.793143750743769 0.7358307335083709 -0.008264939407629752
H 4.584434955492955 -1.4468364012951336 0.18588197811284915
H 5.294460532545244 -0.2853290180185777 -1.1864300393450298
H 2.711102489420467 1.8170328687912412 0.6154504510644615
H -0.46244574425620877 -0.012818668457480524 -1.206921797333947
H 1.0693260658044064 -0.9530853919311555 1.1128097857930925
H 0.31668386919275604 0.5729194025133653 1.6212295406810917
H -1.2527234553978974 -1.8030118092345513 1.7985737173610299
H -3.018023519192974 -0.884388581429953 -1.4279848651236915
H -4.841006898188151 0.5943206441827273 -0.40036348629775254
H -3.85596089533255 0.7204737040049319 1.0821553039021916
H -3.489913572516889 1.7405877082426897 -0.38053874093466605
