18

C 4.773649181394017 0.41215284655077306 0.5048057826876704
C 3.6164205243377445 -0.21598081581927986 0.5289756927402248
C 2.4137946670637294 -0.7470506606552082 0.49155810926213905
C 1.3867783523133357 0.009593452777408059 -0.15690711614885458
C 0.1255440485347364 -0.16681760773666907 0.16273889463093408
C -1.0825772077562759 -0.639851104638936 0.2551332507969564
C -2.338070154514442 -1.0075249536627706 0.22564049809285797
C -3.449298700495129 -0.051348549537149145 0.13708934177614093
C -3.240638812181741 0.99146024211086 -0.9335659487723666
H 5.370497020003238 0.19458412470454117 -0.33981097114613806
H 4.942852338050743 1.0463561630861815 1.3332264925178212
H 2.3583153311310867 -1.693105028548969 0.9593136033731159
H 1.5942479234104145 0.7322216516168978 -0.9096142441404752
H -2.516684884859404 -2.0734084418767407 0.2708383128783445
H -4.378974351423605 -0.6047962621308077 -0.08946341128413067
H -2.88133620013411 1.9586094165896861 -0.49912970272637663
H -4.211906450754203 1.2117014606710885 -1.4416650045252652
H -2.482612624120695 0.6432040664990755 -1.6721703643446222
