48

C -4.525512540738037 -3.0339364139304403 0.23175248817093172
C -5.263985842915625 -1.982325554282806 -0.026896306826214154
C -5.943384342022044 -0.87945049141134 0.15954502317336788
C -7.3294161512175595 -1.0278745079123714 0.5533014246053377
C -5.207596387439087 0.35608614975749814 -0.05709611779598266
C -3.805213614106831 0.1595060725136731 -0.46685777676476387
C -2.7102926277664183 0.5706330013739908 0.12471555578386526
C -2.5518633260192667 1.312965143722282 1.3121709682448
C -1.273791252352242 1.6251476757516738 1.7251132930269102
C -0.24183948649171694 1.202984765332693 0.9710324955817677
C 0.9491871672653541 1.5165150053802399 1.391093998434778
C 2.1497489081430254 1.746976014785273 1.8610705323277585
C 2.6671702526473333 0.7480903459792583 2.7264924632443295
C 3.9666983324544693 0.7760477965601214 2.928738154769891
C 5.267199968782438 0.8305401266128748 2.999392224814295
C 6.001255579573917 0.07512407007484245 1.9610389972448135
C 5.169863310477836 -0.2974986731086878 0.8371562342380585
C 5.397513680353157 0.07627153633915082 -0.39338789549443964
C 6.4881041919256575 0.9046738670694779 -0.8331930105221199
C 6.650097182000819 1.2311691682157324 -2.1069680614203103
C -0.3133896687950591 0.48988795708565225 -0.17408774622078216
C -1.606665816412949 0.1634345709880587 -0.6103693995276287
C -2.10716165180802 -0.5698722477160131 -1.7652912309458595
C -1.2226645775347131 -1.1872372448011843 -2.8149744648777144
C -3.420698741328017 -0.577377575184309 -1.689081527594922
H -5.036125093064976 -3.8746913293775846 0.593684915346356
H -3.506744476159591 -2.88751718115024 0.04086081232804284
H -8.004462812439572 -0.342084670392903 0.0017799791438736943
H -7.695890292677097 -2.0456390566181977 0.3151225211966642
H -7.463915671295057 -0.9315581590664413 1.6681763786576616
H -5.770325827677875 0.9389694305705183 -0.8470802554354717
H -5.292016102162552 0.9830047038308737 0.8558859519607728
H -1.1300151977154076 2.1864916957913048 2.6201657088082064
H 2.558301293071977 2.6500294406645293 1.524114369298742
H 2.1811411629626516 -0.03181547243398673 3.248735843912943
H 5.64781784298367 1.408902354242787 3.79092411786962
H 6.862574801236282 0.6879607489722078 1.6584728425853736
H 6.343027931795165 -0.8683406444952905 2.475159497032031
H 4.303199768287754 -0.9273096146276124 1.028654134398602
H 4.709718187286064 -0.251682903023201 -1.213217118871009
H 7.226076964008576 1.2960379179848025 -0.15265147332469156
H 7.4779695456069515 1.8609204469154124 -2.447204734993816
H 6.00290934965015 0.8920333195593756 -2.8765356983241155
H 0.48495721491551463 0.14154229276282082 -0.796461086855668
H -1.8359556526111978 -1.3825348935638735 -3.7097391273360127
H -0.7999688993975791 -2.157968387602311 -2.4237461783688534
H -0.36015706735910513 -0.5388952045676306 -3.0073769042970233
H -4.085479515231803 -1.036335391995744 -2.3866058676122326
