34

C -4.777493878215545 1.903071923828852 -1.2577563320249832
C -4.178215155719552 1.496284708633067 -0.1538310394564192
C -3.5421548021892444 1.0097924328267838 0.889154566476038
C -2.8350418469710825 -0.20571222731248207 0.7026034569588947
C -2.9103263570457574 -1.4594314367124064 1.4296092050595754
C -1.975350278504423 -0.19147385666528535 -0.2830860778687664
C -1.0032381448117935 -0.1411644399832195 -1.1780996130174939
C 0.24724174183625813 0.27224422698815864 -0.7398126265598185
C 0.917979950500533 -0.7166056732911825 -0.1260934898972695
C 0.3882528168161173 -2.053653829302766 0.05167534336076863
C 1.3094753023517738 -2.8029363969718952 0.7043345119703985
C 2.5202091599883514 -2.0260656658670597 1.011035341673424
C 3.7044135686824453 -1.4530926237216006 1.3694474095914158
C 3.337255711016538 -0.17860775365411857 0.8042902815537915
C 2.2147166412700705 -0.7315723388556101 0.46740765921833155
C 3.757191484064931 1.2421519146700541 0.5515516995155744
C 3.312785018088615 1.6682734300116822 -0.806108062052316
C 1.9374515600556192 2.1613536179785307 -0.9778897706821642
C 0.7009008870203158 1.6728174024532354 -0.965884124764489
H -4.183275781375616 2.525272466143284 -1.8682044304822374
H -5.764616144363388 1.5452364186302836 -1.3687142385916211
H -3.644834991776174 1.6109943661870865 1.7633724711118963
H -3.114336475995132 -2.2800423746632 0.7031037290178526
H -2.0168337207530396 -1.6801255942317204 2.0557122625794793
H -3.773843189758982 -1.4357065416217298 2.134622289630874
H -1.363080972518813 -0.4435727561804979 -2.1400158435980177
H -0.5900147159767763 -2.3454081450504893 -0.3012036700932609
H 1.2144833578299843 -3.8326287609317293 0.9833078543923588
H 4.560362869575098 -1.8376999713606528 1.8782634914720786
H 4.85558084707851 1.2846871965522277 0.6217951645419344
H 3.308294057960621 1.9278659250905203 1.2948572419177082
H 3.4691163758990498 0.7681089720526911 -1.4841576936962875
H 4.039196894259831 2.4202421254039197 -1.253993445680252
H -0.12225178831969616 2.3071032589275133 -1.1428896161625453
