44

C -7.04921351818854 -1.4192504067235527 -3.4454050089118655
C -6.510517865561897 -0.5985924874305082 -2.562316581273379
C -6.388625742595621 0.015729308430879444 -1.3955953932988177
C -6.590565760859963 -0.6513026144013201 -0.1279057236693557
C -5.757000785004552 -0.4562806383431652 0.8699274025474069
C -4.607363138288473 0.41335860240382905 0.7835413312847375
C -3.7568008694389414 0.636926060525714 1.74296504052873
C -3.8596509079676915 0.01937253748409633 3.0660917461116317
C -2.978389415438006 0.2682013408224052 4.020476538558786
C -1.8704855492443127 1.1498226264709641 3.8339075511138176
C -0.693450446732008 0.5715030341676908 3.703893028946101
C 0.42191336151080894 -0.10144122839452091 3.4883720398148554
C 0.6842053859196094 -0.44071142019718434 2.1234899737736423
C 1.7235348308941123 -0.003358240318667495 1.4385469733748302
C 1.8976855749999944 -0.4096086921676441 0.05245011446124105
C 2.932633221947997 0.016648255578972773 -0.6543098497017024
C 3.9957070778272405 0.9100715181342857 -0.17265130127624814
C 4.814895807793748 1.0736882663837861 -1.1916367583051009
C 4.345289732547398 0.32203120492201426 -2.349920079005658
C 5.0199092681745725 0.26944126341517255 -3.684781862257869
C 6.414173084509696 0.6998285659760966 -3.5664502018039097
C 7.156424694748175 0.03780416777271421 -2.716272312663652
C 7.827858482441947 -0.6781095213395661 -1.839538544716075
C 3.213309927074034 -0.3159221627107867 -2.0327749278885126
H -8.053496052770551 -1.3299399742942404 -3.803971301563951
H -6.43061302497121 -2.2139307257247376 -3.8078710446074964
H -7.425983332667048 -1.3077058141422302 -0.002341208107583421
H -5.95338670174514 -0.9822412563031035 1.8028176914018113
H -4.437472260513659 0.9254601660212677 -0.16411521783908298
H -2.9044618481080553 1.307767256581359 1.6156992807081723
H -4.678182709279575 -0.6689866516234471 3.2945130940726197
H -3.1072965860022776 -0.21637428115244162 4.9729976437907055
H -1.823932127008286 2.2016801201672225 3.779350613902814
H 0.9676416113442274 -0.29658254085006525 4.366905786115809
H -0.02778880165733004 -1.1060567438296784 1.623422419366771
H 2.4417292495903427 0.6554584328507175 1.9114368584608457
H 1.1731825577944255 -1.066639803662467 -0.4033220911515145
H 4.05448651811085 1.3251775178310394 0.8225629417676209
H 5.7086462706901395 1.6824692629714604 -1.163853289115784
H 4.445856637743044 0.970018796399256 -4.358903849870449
H 6.9156187818568835 1.4762577964934551 -4.072960477119899
H 7.800216067686062 -0.30210968575322633 -0.8509350018595941
H 8.302790292627773 -1.5329309335852428 -2.245032977325525
H 2.6469690062104654 -0.9471435106229329 -2.7005030667653225
