42

C -7.032253934419194 0.7877686184103315 -0.30257408340472697
C -5.933622422509834 0.09364493514789354 -0.16962068337403433
C -4.893350581979704 -0.6562181539106929 -0.04575108358843555
C -5.048674687004194 -2.0877110595149926 -0.05176250206653198
C -3.6430665951305046 0.10140194513593026 0.0897419090743549
C -2.6029921736872272 -0.42159771416042985 -0.5277906846968125
C -1.2686154369533391 0.22502046159019354 -0.48550381352585137
C -0.20972460421041905 -0.5091702716559419 -1.1913945555710728
C 1.1700617984286636 -0.011241087392650515 -1.0957878623079482
C 1.8266677715922703 -0.04237469960541586 0.2380902682219309
C 3.2012524986394015 0.5316770223012234 0.0517429782731444
C 3.3980770693283953 1.917579831675686 -0.44739866990351523
C 4.247545650333135 -0.18448554395731231 0.3281870413675085
C 5.292055468686676 -0.7798392836082273 0.8264481314919604
C 6.2572366557998675 -1.6366528398318398 1.0851955729745326
C 7.611314620942197 -1.5155164788327384 0.5109738881087821
C -1.1512307911500526 1.3370395100014307 0.1868551885037092
C -2.2560580893630315 1.9787305026837787 0.9034844627481015
C -3.553958721718073 1.3223625108025496 0.8363776628551404
H -7.292069096436362 1.0119297965518665 -1.298418482731918
H -7.5076514805697006 1.0274865558817399 0.6142408021992548
H -5.31029876205847 -2.515245551342565 -1.0558669945216783
H -4.073525689659731 -2.5841487146112048 0.22101376074933685
H -5.789327254570998 -2.4492840365006567 0.6791153750650374
H -2.724071716478605 -1.3503981935759022 -1.082965201030113
H -0.4690179843818555 -0.5598764604798366 -2.2908688950715073
H -0.280205621161714 -1.5763276037842284 -0.8670817673525218
H 1.2525487638226243 1.023821826865052 -1.499709948192558
H 1.7986512007631976 -0.6703042132901275 -1.7698798986045472
H 1.3622272150002113 0.45776888916834313 1.0686398562722588
H 1.9941020561698148 -1.1224720847791814 0.5701967962257295
H 4.298562796214239 2.325147262524734 0.09752755740585728
H 3.589042249791747 1.9412630057181401 -1.540329567773869
H 2.531965733628575 2.5681257516403484 -0.21286086587272635
H 6.0350829753834 -2.448531082956984 1.7403876977687534
H 7.85057712702829 -0.48665136075855836 0.17461913694764541
H 7.69900547767372 -2.2042985293058477 -0.3709433103272079
H 8.410801739019186 -1.8162203170736666 1.2428624978636473
H -0.1463688098867595 1.819324219392228 0.1718274773157066
H -2.3176311114136277 3.084025068606249 0.631422945454189
H -1.9654273345466204 2.0164334667326207 2.022524599265309
H -4.357635968955908 2.0580141000988985 0.6669172287995695
