37

C 4.718034582383594 2.857788232851235 -1.0079132549156016
C 3.5958786445248254 2.8308746088789367 -0.325855247757952
C 2.5254448290674496 2.7948553049217724 0.39180250319174775
C 1.6252407050763928 2.383759856183185 1.269781039251681
C 0.4057260564377771 1.7296623145783812 0.8370862878846692
C 0.3612795282511569 0.41793291438123487 0.5812110065181533
C 1.6404202411259248 -0.2592992837169325 0.7808950024389323
C 1.8841526982294188 -1.5283532818354024 0.9411731290154554
C 1.2455520295268254 -2.4739259040738486 0.3461862991680408
C 1.732941985508502 -3.846361430820335 0.6408561057460002
C 0.12455374334808618 -2.3597519116246493 -0.5631563089925775
C -0.17064531346999123 -3.476456376476499 -1.2028662082250994
C -0.7607922967779451 -1.219240356082437 -0.9147567675619066
C -0.8695269645559879 -0.20163037131714473 0.15204524125108426
C -2.0849369059691143 0.5575358815280843 0.22707880291798221
C -3.010256608753507 0.3250243619834021 1.3664323525141626
C -2.4365765695591435 1.4646033749158496 -0.6691168354917136
C -3.7024424901893775 2.2431976031689413 -0.5748273537891812
H 4.705557858111464 2.9984921389693424 -2.076430180160103
H 5.687932954485436 2.7397551858517897 -0.518991471062942
H 1.7889322667459988 2.532392600600886 2.3434284713157045
H -0.5003200704183803 2.305140226760777 0.7135032408662947
H 2.5256168577732447 0.3639552893726944 0.8020632110479001
H 2.2818572890583533 -4.270699005565869 -0.22861329460581695
H 2.4383405351756138 -3.8199232167067914 1.5056734512261556
H 0.9098646178777173 -4.5308656780809455 0.9465606820855519
H 0.40381466530426546 -4.349198114100111 -1.021051387068377
H -0.9953577586760913 -3.5208892568725023 -1.9167032525571375
H -1.7825292190210609 -1.6557244453918616 -1.0812803661988224
H -0.46364988313300204 -0.802919011967509 -1.9091991176542662
H -2.6982468017278998 -0.5227910706421376 2.0093090562663702
H -3.1624281827241894 1.2286624269493873 1.9888237268132707
H -3.9841265007152766 -0.005750076726828091 0.9040202522035068
H -1.8079976286383888 1.6974863042550636 -1.5431147856527268
H -4.542244482679771 1.7352549154559869 -1.093420745877038
H -3.616559814278513 3.2486898563488564 -1.007558792149473
H -4.012504596724023 2.388715394045398 0.49595502836571786
