25

C 3.864571764985506 0.23351094623828797 -1.199987929512631
C 3.102639103990567 -0.46869760099601515 -0.4062712210723349
C 2.296216962782907 -1.0765743789375661 0.4319192064859593
C 1.6861434571111324 -0.2917917931798156 1.4333282285245392
C 0.5376164137102254 0.2648700196751867 1.4283875318052612
C -0.5197253975637268 0.2829881398732063 0.415912428164573
C -1.6218838818599803 0.9990215372412378 0.7189190468996213
C -2.771408957376475 1.1571429079478677 -0.11010086263937686
C -3.7774233842538103 1.9124063740790211 0.3607767527275281
C -0.47276655721618266 -0.37797988457005505 -0.8780351269091832
C -0.41855971545209514 -1.888590041568222 -0.7323248855580291
H 3.3848540183529963 0.6418787194586711 -2.061957253916878
H 4.880938684376581 0.3161369936844504 -0.8892122769707468
H 2.225866664977703 -2.131633563939021 0.2329711980112559
H 2.303135116881287 -0.13920647628145622 2.3632335092244614
H 0.2948239217182992 0.8456302013498062 2.372281620959349
H -1.5857677200177187 1.4935275643099744 1.7164821857991137
H -2.909121337271432 0.7266281855680563 -1.07520848431097
H -4.638734535578369 2.036514445083459 -0.2494743411838106
H -3.732185976911345 2.394533948332943 1.3405171273034207
H -1.3409400136510046 -0.13786127507826465 -1.5017628488301953
H 0.4805057403571578 -0.01688710594536357 -1.3973204570494737
H -0.3308349601867416 -2.127640662558926 0.3260658719383876
H 0.41039159665713837 -2.302690614985678 -1.308983919697191
H -1.3483510085622417 -2.345236584801283 -1.1614173458097876
