16

C -1.5663096712607738 2.374066831844377 0.13677824643715886
C -0.9700442344254131 1.2415685239716756 -0.03089448144213735
C -0.42303012859512473 0.07628567417349373 -0.16601845824988862
C 0.8076742676000278 -0.009493612690368901 -0.8920524604654513
C 2.0596793784363756 0.2669567615758146 -0.15223007763586757
C -1.0423255984865127 -1.0642304012021528 0.39627643758537096
C -0.5763500874835125 -2.2976929362948013 0.32119733900655173
H -1.3416036118802133 2.9490071482514746 0.9706726665003232
H -2.2628111231188943 2.6924963762273557 -0.563542554186665
H 0.8720737216488231 -0.722475920397452 -1.7089721834924991
H 2.3117243079856733 1.365682275736746 -0.18186045972560866
H 2.892537178802574 -0.28831571966932995 -0.6115318515773477
H 2.0322193379323967 -0.0005314125751611763 0.9298740583106085
H -1.9937965358916148 -0.9508546103309087 0.9497451412205821
H -1.1279872178922565 -3.0941632418086464 0.7855481160299238
H 0.32835001662849306 -2.538305736812295 -0.18298947831509074
