18

C 3.8072031171828473 0.016590568694658775 -0.061073821645015756
C 2.6011584038875273 -0.36533240995195665 -0.436743981731229
C 1.3756348256597764 -0.6626612416355094 -0.7936889864323333
C 0.399406953116694 0.4200964814755505 -0.7160132528023988
C -1.008611496367554 -0.05601649595337896 -1.0589517392317038
C -1.4203853193010667 -1.1096442944473277 -0.11842845515042606
C -2.4339736999296613 -0.6502927821261737 0.589536631116756
C -2.745187100753839 0.7064121733980568 0.1669412944235169
C -1.921572055366872 1.0560159431030358 -0.7888788880043629
H 4.000067385054534 -0.10581629408190622 0.967909370387942
H 4.406797126328444 0.39129298229690124 -0.8458265466454506
H 1.2416525344138771 -1.6656784126071478 -1.0989531264218584
H 0.40483279704412056 0.8469482909402277 0.3112259825685954
H 0.6364529465344059 1.2074710470493495 -1.48225085791981
H -0.9389012529362545 -2.092830507181865 -0.05201740857679396
H -2.91595763987594 -1.2606381900635675 1.3624840657158104
H -3.559695763359555 1.3106970850963289 0.6120576669906844
H -1.9289217613313723 2.013386055994768 -1.286013813430624
