27

C -5.282860604347098 1.3827190948332473 -0.19421057163953334
C -4.948237134720444 0.29730060289626487 0.4468996754060245
C -4.580046546513638 -0.8186284607044818 1.009375552521734
C -3.888809385837065 -1.790725484876679 0.153229343690171
C -2.449831018981643 -1.7878568287464234 0.46235203812062153
C -1.604091981640468 -1.0279490533635522 -0.19938272884894495
C -1.263458023502265 -0.07577885939590479 -1.1846133813233508
C -0.24054608774399097 -0.562437441471006 -0.4213254404367484
C 1.2038022829854547 -0.5885509381673867 -0.07887430681581896
C 1.9319851842544857 0.36721650889843344 -0.9840364880630971
C 3.2396175887968024 0.18914442561476785 -1.077500364598322
C 4.480576835936609 -0.1845552739584473 -0.9996422337761317
C 5.313771336727983 0.29807524768706173 0.10958482588837068
C 5.246049365472534 1.793024291739271 0.23739052602899835
H -4.552396580010793 2.1535704685635073 -0.1832835588605395
H -6.2399606938661005 1.362391656799092 -0.6473941464937223
H -4.823067581420189 -0.9012106634939187 2.032953243089179
H -4.27560723176442 -2.8180751716212162 0.4165933023117886
H -4.11804219307814 -1.646985101098268 -0.903624966936435
H -1.512462899307978 0.5988823425819659 -1.9890946801928626
H 1.2983626604139853 -0.2290923800620545 0.9647377408585757
H 1.6015843922259987 -1.601060743454479 -0.21250344648900849
H 4.870410898869417 -0.8392992760167431 -1.742163572021658
H 4.967429838910953 -0.16512769589707002 1.064232799709955
H 4.7983073265008755 2.2407220179704095 -0.6710911739656075
H 4.589207898792394 2.0987087591010187 1.1007800108146946
H 6.238312352845089 2.2555779556481643 0.41516369194932584
