19

C 3.512505614935874 1.0315569139360496 -0.28529174597975027
C 3.5316057659940983 -0.2711493151157661 -0.29545360093496853
C 3.1269939383039556 -1.5285408987126663 -0.28131069354054206
C 1.724320328685392 -1.901269294039637 -0.08669551835562135
C 0.7652173903136481 -0.8183874880965509 -0.3792627376867101
C -0.42034688685890026 -0.7993764864528602 0.19470505190351944
C -1.4098545748696973 0.2193285639919423 -0.037291427104842206
C -2.5692505359805233 0.16088041207150572 0.5786497271719776
C -3.6456631956649823 1.1600952128352553 0.4035343909636442
H 3.477005386399968 1.5283782945164028 -1.235770453272906
H 3.5269409980100574 1.625967459555154 0.6067110120700133
H 1.5345038033548208 -2.354707403275383 0.9238382138970822
H 1.5056636981831535 -2.7423328417323822 -0.807745026108284
H 1.0513699595775974 -0.043742315809463535 -1.0702925392619036
H -1.2516425688997326 1.063182458888298 -0.7140200105223335
H -2.7476253926607397 -0.6617506966225397 1.250341645749375
H -3.8572747466722634 1.6965007323506807 1.3658619600028146
H -3.292457703652037 1.9326151900922899 -0.3118626074319432
H -4.5620112784998685 0.7027515016196759 -0.020075046064564665
