27

C 5.346748968000068 1.3198777772135881 -0.6243844619083048
C 4.209500360800976 1.0213226861064586 -0.02545532726220099
C 3.056970836633053 0.6646354662198942 0.49716113028750125
C 2.2700689438299047 -0.2935038741682958 -0.2623666993012744
C 2.432264122363022 -1.6853176600157187 0.16643557687996874
C 1.2227835998646326 -2.169049534402146 0.41557693974649007
C 0.21532408840182438 -1.1420263033228124 0.16936579698589385
C 0.8268670171667036 -0.025276969574017007 -0.23334604787711866
C 0.21785629122441624 1.2507256524683261 -0.5900917376859265
C -1.006191055772591 1.484960805294264 -1.008020298942089
C -2.037489431207987 0.8187174063940159 -0.5880854659920209
C -2.2217211111670347 -0.4803316661102946 0.01740078659347078
C -3.5500347247014985 -0.93567754999595 0.30772625258358477
C -4.457412431265882 -0.013500552656681153 0.5042740980859315
C -5.301015737312648 0.9880330198433892 0.6862349766653058
C -1.2336852997277168 -1.320492287676566 0.34055822214290693
H 5.286532388918692 2.1423420528782837 -1.2851606056354226
H 6.155113257411632 0.6934084751056769 -0.35835825436587815
H 2.8456895584679733 1.1303855952722217 1.422733175933295
H 3.3725819956301923 -2.2065907714231083 0.25747331414477964
H 1.0234057624355306 -3.175349023994308 0.7506606859934046
H 0.8873372105422914 2.1158963664696686 -0.4890074872574157
H -2.9731930310485137 1.3583732681132659 -0.7213893712772601
H -3.9125631261088007 -1.9250148102159077 0.388189506544484
H -5.783427688112164 1.3156066737952066 -0.1952360655788332
H -5.372477735060974 1.3192035404494273 1.687565637388769
H -1.519833030205225 -2.2513577820674953 0.7839727610310039
