41

C -0.05067004320707377 -4.012099760342452 -4.18043772965648
C -0.47888879399079337 -2.8036504535688858 -4.5327920511569095
C -1.0527740320131722 -1.6286587558648378 -4.733605446444012
C -1.717229890570632 -1.0403324663410523 -3.589974857340924
C -1.193149386776876 -0.31249203324851466 -2.6612579752402112
C 0.11611365751838787 0.2669518167697848 -2.2545728655480115
C 0.2742011995996454 1.0214584858828526 -1.1776247922924679
C -0.8434680378699951 1.3540512478545266 -0.2823063436802771
C -0.7508765086838862 2.1303797608300536 0.9054914088425101
C -1.3157533384860083 1.435220896027255 2.125699182780358
C -1.0018385929013702 0.6068726331076777 3.056779681033069
C 0.31324925071168136 -0.018914076922638412 3.1794899409449777
C 1.5573212486869406 -0.5482645255783459 3.386663242134941
C 2.656606441698561 0.3045304372151723 3.149972032988741
C 3.771208209623708 0.44545607813368937 3.9280858384375477
C 2.837090980646745 1.1707089347538564 1.7975728209310435
C 1.520502178079043 1.5580358072779812 1.4620092200759216
C 0.6904205953776171 2.52762479438723 1.2752196358397974
C -2.0796926409596384 0.8342820172279638 -0.6288368914177397
C -2.3014626585119524 0.03911278552026649 -1.7368501655343669
C -3.471180907026622 -0.5765031749792799 -2.2306829268757693
C -3.1726085841091813 -1.2173811518880877 -3.3215974769373635
H -0.8360056266602132 -4.696977779280467 -3.99573321511838
H 0.9903419417747668 -4.084844713066786 -4.138208717573099
H -0.9605204055152909 -1.2529190848698104 -5.717717819763741
H 0.9638261847200091 0.02395847506857668 -2.9084955075698997
H 1.2888331485583788 1.411250845790326 -0.9922362392089215
H -2.440584113704184 1.7786764899805587 2.2722050700977383
H -1.7245351411377698 0.32670455909487917 3.8292062240257696
H 0.18858853132462772 -0.4725162593248002 2.1203318522214167
H 0.7589851348556103 1.0952064656001974 3.239047537473389
H 1.671712717832417 -1.6433638519172704 3.3327195265596954
H 4.462012112238827 1.1124920367667366 3.6359475656465947
H 3.849684333178275 -0.212472570732408 4.8061557984901295
H 3.658470924641129 1.8421709208533532 1.9289833768869766
H 3.199240256359932 0.32453534516451815 1.158535385852765
H 0.9377787214410337 0.6279444633734234 1.000819242310688
H 0.8888892102419224 3.5210451309127784 1.3378004512793082
H -2.8909127582626635 1.1202813995576502 0.08258176524956784
H -4.515009306603594 -0.5478319803903497 -1.7872633731536247
H -3.7979162214642512 -1.8097289325254113 -3.9722127281299113
