26

C 6.618278979226516 1.5882967911460029 -0.15521072581105622
C 5.414318577548007 1.0930251652032654 -0.07668210755676359
C 4.275101849864856 0.4910822046964454 -0.2211000131850306
C 3.2316054825682756 -0.2860047991050017 -0.310879632569708
C 1.930878292646793 0.3009849579534524 -0.22559615406795597
C 1.1177691986086011 -0.2438455573053001 0.6525834940929707
C 0.3549482601293675 -0.8946483780962395 1.4846359175718487
C -0.3766174299292976 -1.999895865605621 0.9514624764615336
C -1.1796675942202792 -1.922137224652852 -0.08178167561467073
C -1.456142033542713 -0.7371528905490732 -0.8393943269843542
C -2.718159233588452 -0.3499524043428919 -0.8174354088755011
C -3.9623277027210646 0.023013509867906276 -0.7133767533087803
C -4.248900519705919 0.8897391630884086 0.40593680783599156
C -5.485986185655558 1.3035865334007517 0.5697283587688284
H 6.784578823495987 2.6170900971112925 0.06223004668500153
H 7.488379060127929 0.9967289447584283 -0.4376654134906757
H 3.304124988852254 -1.3617703468767095 -0.44785191558912774
H 1.4988825367138217 1.1054630703645842 -0.7502785798666126
H 0.3544494297586681 -0.5405345368722251 2.472872290067427
H -0.2521176672953589 -2.961032224601779 1.4409805608480617
H -1.6871857780550823 -2.820722594230764 -0.4059137109168148
H -0.8210739876232053 -0.12142441075748887 -1.4104231366064366
H -4.603608338326118 -0.35136503593188534 -1.4521977589904673
H -3.52699815320874 1.2308451432485625 1.1276345619311046
H -6.247167169164448 0.9944275606535309 -0.12039474581106054
H -5.8073636865036855 1.9562031274352873 1.3769531758449196
