22

C -3.9719047395196183 0.9734512655767658 -0.08083040044460298
C -3.766744890106064 -0.2901805782243476 0.22791915558240664
C -3.4776884748927603 -1.5400470401225037 0.4530068812152708
C -2.213385530961697 -2.0430821559321823 -0.061189909188133364
C -1.033130917539977 -1.637178563280007 0.7142900797991919
C -0.7508352043825006 -0.3872265924636752 0.9328414231155537
C -0.3506118077378085 0.8772317679368953 0.8859898995398424
C 0.28888921075407437 1.3188770710356974 -0.3107426246416434
C 1.4695254064039744 0.7791358583695567 -0.5627977082317226
C 2.6365911610544415 0.2589403077320549 -0.691198168473322
C 3.742537124686808 0.9254261638226963 -0.08442478475573717
C 4.991791733069182 0.5015274967477502 -0.13824020944392612
H -3.60621270464044 1.6574216399583401 0.6385085693813742
H -4.471704867327615 1.139383296590669 -1.0025633045127482
H -4.234127750186358 -2.061192060524943 1.0088782056009211
H -2.0798865096768613 -1.9307703969247445 -1.1534194109015665
H -0.38227985417391114 -2.382754660596176 1.1090122230511346
H -0.012861853680194501 2.0114313360969818 -1.0420179318006972
H 2.657861681074439 -0.6526363017101788 -1.2585419517310898
H 3.5846022036769853 1.8440455289913156 0.46545103654222214
H 5.775601061320401 1.043148030792251 0.3353066758484329
H 5.20397552278521 -0.40495141387216516 -0.6715714762621209
