17

C -3.763235661493483 -0.29524133905148525 -0.5052085678616636
C -2.797167304311413 -0.8305298196399589 0.17826631078739266
C -1.777189889779137 -1.2849881946925652 0.877785330123434
C -0.6508524540987813 -0.41641468033310625 0.9960170671180022
C 0.036792619372383505 0.12901708351921723 0.03438542323653338
C 1.17699296360826 1.0052323822304752 0.36261654688300565
C 2.3881882352342556 0.17393490806549966 0.4589253328261242
C 3.4219912444639293 0.3874563505954829 -0.33078123375968155
H -4.476762167501519 0.2715247861072057 0.0541004226270879
H -3.729605632343079 -0.48582574436250964 -1.5573332357197143
H -1.9298777374969114 -2.2538422696264786 1.2680614517045836
H -0.2345181829186164 -0.0656698333139879 -0.9847516606895436
H 0.9854123294099535 1.569583340221953 1.2988679093913493
H 1.2569382186368283 1.7837156178088167 -0.43983882220108095
H 2.4100481595731917 -0.6113597511513164 1.1882716356331577
H 3.3919486007507924 1.1648515719400987 -1.0479906781277155
H 4.290896658896976 -0.24144440831780922 -0.23100039942144815
