25

C 6.242890278622609 0.6698013448500688 0.1863561520256093
C 5.073372450473898 0.7472335177997834 -0.4072342441917019
C 3.817480664801407 0.7147824643454292 -0.6654667666792361
C 2.518012710818115 0.7914988032682715 -0.7161367638509124
C 1.2410875108131616 0.5315561758729392 -0.7400677450777574
C 0.4942631120446932 0.0391018655356537 0.43958954422102975
C 0.9198367991669699 -1.3601869017978947 0.7531896739089919
C -0.969716704322385 0.14499138869331402 0.14924679677389668
C -2.161534898428552 0.1619172308578531 0.7745428127345537
C -2.969509882096695 0.10977925459188692 1.9896350582322657
C -4.278681055552429 0.19066730604192322 1.901744743660772
C -2.061130914523505 0.27186118110885554 -0.6633313288781201
C -2.7049264928953907 0.3983373637606749 -1.7848972138552341
C -3.3017452362047117 0.5191278248298599 -2.950772532572909
H 6.847010987624627 1.5479667088884839 0.3123942482919368
H 6.637923486476077 -0.258935188974092 0.5643811149287136
H 0.735501978293535 0.6968156431824846 -1.6899060337099745
H 0.4461275056507024 -2.11302290070307 0.08713919862386789
H 2.0260823102749774 -1.396762041223144 0.6942512103729733
H 0.6751510709385807 -1.5437803278104467 1.8312480164060425
H -2.5277248416298073 0.006649471300472448 2.9624763521240975
H -4.907400801109878 0.15687582700534863 2.762951790517131
H -4.762560997736019 0.2950337689776392 0.9431120158388134
H -3.5454533224841858 1.5117928062635198 -3.2512283228303076
H -3.484355719017063 -0.38771458486156524 -3.4832177770145
