27

C 6.438920450322695 0.6386889131915049 0.609812407169332
C 5.179499202850235 0.4378869953276733 0.8661651728981655
C 3.9422439215915297 0.16749272289619874 1.1151349018848131
C 2.707639320016689 -0.18424517570521415 1.280422295718294
C 1.7214910516244435 -0.12552987860219286 0.21984396969500258
C 0.4317700398432438 -0.057496317496036634 0.4236751973999427
C -0.5851898523317814 0.0026945896435567555 -0.6046340555143084
C -0.23618242355956962 -0.009024163018412606 -1.8749110905232187
C -1.300507967633996 0.053953826842838046 -2.948000106067888
C -2.4161634797611393 -0.8281507330880991 -2.4980442482980445
C -2.790239236871171 -0.8310701152354342 -1.215755425827959
C -2.03589170508226 0.07884730164501275 -0.3088389813658954
C -2.3646200549743597 -0.09287252632892994 1.0972166963025798
C -3.4585240070002983 0.5050383387223393 1.5089742179553807
C -4.569962683182402 1.134731411529679 1.8507721729033797
H 6.864059687175624 1.6081869529032058 0.8665267516349708
H 7.008062931970532 -0.1616533706326846 0.15475143192422267
H 2.4096423801471234 -0.5338577331808881 2.249762610347842
H 2.093638002151107 -0.13993981344555545 -0.7880964751605853
H 0.09753347096615021 -0.04538349306188959 1.4789772302747863
H 0.7608685540191311 -0.06043514801865423 -2.246737359022255
H -1.6904821204868292 1.106682621786046 -2.896347771626449
H -2.8978335888790467 -1.446832080732605 -3.2227000669173202
H -3.586519710909358 -1.4599828080250505 -0.8920283350751856
H -1.8547771594344782 -0.6304672202514562 1.8501660135623386
H -5.446144274926183 0.5521533621871023 1.7460153416061537
H -4.42233074764503 2.127641267096088 2.177877504122253
