41

C -5.5359798551441495 2.929640259517145 0.6694786594239618
C -5.511477347022694 1.647643831197952 0.9636124045024685
C -5.435679145321095 0.3562991055310967 1.1831223839231104
C -4.5324227172232785 -0.3781312730742195 0.33516812277262836
C -3.2207018768080156 -0.33405130913484743 0.39444736249379425
C -2.3976461094309576 0.37806340836687985 1.2255660571153997
C -1.0033562332366437 0.2762230457133233 1.0931240250752436
C -0.46384837964872555 -0.5399757473289005 0.12639370264493946
C 0.7941736643549618 -0.5293010189787908 -0.1267514081650539
C 1.747800116082501 0.2774575907504209 0.5005857035807085
C 2.180504457350812 1.05654531273103 1.3355737213901222
C 3.641843873430917 1.5231530495684726 1.2981841130969383
C 4.552755814848131 0.47394753704521697 0.7570708585538569
C 4.456505209135882 0.0905918605531841 -0.6433450602288381
C 5.05489828235996 1.0000028992065402 -1.489251829477786
C 3.9471462703339175 -1.0873381887876328 -1.2601155894247542
C 2.6571848779112246 -1.6542775781895827 -1.3513947492322584
C 1.4215318382985271 -1.5856213862280706 -1.0155393210999428
C -1.3161239762466563 -1.254901931220654 -0.7013649652090079
C -2.6755689396939157 -1.149111220506058 -0.5644738025671329
C -3.7818605327138153 -1.7606346005983666 -1.2915757527174834
C -4.900204128305199 -1.2892479467253852 -0.7417509797306593
H -6.254643880739989 3.2055408584556515 -0.05630291836975887
H -4.827442826839059 3.51087399956752 1.203285670487244
H -6.053196957329127 0.009750372232807735 1.9634349361478236
H -2.7876301994933064 1.0248739089981511 1.9906708457603963
H -0.3714970361380367 0.8379746531235069 1.7581731111727514
H 2.432573068238737 0.479220212320126 -0.47370846320594073
H 1.6480321610172757 1.4880181946078097 2.1239486326487516
H 3.9537003773223613 1.954070866160197 2.239396208353654
H 4.491515753821804 -0.4318354379148934 1.4506862931701987
H 5.606458360745775 0.84660912312042 0.9825498230731244
H 5.028980155010202 0.7939800690496799 -2.533980903333671
H 5.531441558863431 1.8837426184985677 -1.1277486856817005
H 4.609532677885517 -1.9697036671273906 -0.7982737651818961
H 4.434726868426086 -1.1803952715716175 -2.3486019518566295
H 2.7428227780303165 -2.6398080818776295 -2.0428450954868036
H 0.7155119709901991 -2.3312342977713922 -1.3450655955865594
H -0.9785329939166354 -1.901693155133321 -1.4838994593825012
H -3.71665062339555 -2.463185761135084 -2.119691815909967
H -5.8851763758180935 -1.5637749030107666 -1.0741828060287564
