27

C -3.145216284021698 1.9818348169606619 -1.2794930295265645
C -2.5192528886562635 2.030072490109147 -0.11957302232080784
C -1.8132605088473264 2.042391396033821 0.9870645662168799
C -0.4330556523072548 1.5913028383041992 0.8888250984586304
C -0.24548208090035178 0.20240192920429995 0.5344378465306446
C 0.5568821761024116 -0.04110183185271921 -0.45609277162702033
C 1.4668949785461265 -0.2697788875385272 -1.374149687140551
C 2.793591223500168 -0.4118702950469409 -0.8983796804541335
C 3.696147002565575 0.38985644999781904 -1.4146269877876145
C 4.539138057845835 1.2338936464382941 -1.9862252058124745
C -0.8410648020405272 -0.9523144855264435 1.1507527906060895
C -1.6718553549397432 -0.8417511859130549 2.165023755903651
C -0.5356579618083075 -2.3145350758111496 0.658293866746781
C 0.29338265300602434 -3.1144145151947793 1.6020282062658437
C -1.1363982120005265 -3.468469039529097 1.2801159092510603
H -3.6324078920194105 1.0640934963672881 -1.4729513437811705
H -3.069878594015818 2.8682411172320075 -1.8513587987999238
H -2.339446450246878 2.3841885716475213 1.8328701517832282
H 0.09373608630235539 2.254789582858673 0.18622885261394223
H 1.051242646014794 -0.311798939106534 -2.341278905427094
H 3.1919290598948415 -1.0836243709221425 -0.16738869949152857
H 4.993120079220759 0.8628633972856308 -2.8651801277017643
H 4.635746718672155 2.1566717250056393 -1.4815702971850824
H -2.1079720510663456 -1.7062346621511844 2.614530586995204
H -1.9070144864802128 0.1336037894381402 2.537752619815726
H -0.2320589005829002 -2.3773559573648373 -0.4137787675108766
H -1.6817885617393828 -4.302956000927695 1.6841230733795067
