28

C -4.302574229764142 2.4102687327188774 -0.007501582443481386
C -3.9681853919885812 1.1575242370816896 -0.23446127309697684
C -3.5392427386548797 -0.0737657096276174 -0.43351303866800883
C -2.1550841561597194 -0.313980559954368 -0.17631755457533202
C -1.1498793488558814 0.5282084482277899 -0.23736720046863607
C 0.12497978712969983 -0.13088859302993436 0.10625623957343072
C 1.0298409462420626 -0.008845413708706975 -1.070803356909972
C 2.328812149911916 0.1547423686904931 -0.8965929237545406
C 2.891357754335976 0.21757158192014014 0.46539297775000377
C 3.57956296695742 1.5418657418137034 0.6684529295152106
C -0.283067554745149 -1.5115788565748485 0.3842753740179661
C 0.6095915571766429 -2.655060060971924 0.7911420360525141
C -1.591336434346218 -1.59948103141812 0.21795512000189274
H -4.2048304036144 3.0464460031366216 -0.847925355274643
H -4.620833213156814 2.6053810715576318 0.9815947630994071
H -4.290572843572071 -0.7354262053379199 -0.7639688695455169
H -1.2794966922024902 1.5738311326531913 -0.5108572861149107
H 0.6277799764600851 -0.05357021885849564 -2.0726839748731165
H 2.9676130372729013 0.24111742708338865 -1.75943853046935
H 3.618285020824004 -0.6358884072370888 0.580220406827487
H 2.1272489933828815 0.06866288306435633 1.2301068775907087
H 4.4173318987986825 1.5911589540652469 -0.06097910963910941
H 2.815366350793895 2.331193508290852 0.4803393794489728
H 3.938364481868112 1.5789891927803494 1.7191082315562978
H 0.5298530129540611 -2.8334652651907755 1.882317578986289
H 0.26701626086911207 -3.5321602336242592 0.20071292697721616
H 1.6589096805239067 -2.426888729263415 0.531233401697721
H -2.1468108684411393 -2.535961998286994 0.3665074248662535
