16

C 3.262575662995092 0.8179278361566249 0.003262529946538289
C 2.653053956416307 -0.286641499560735 0.34984987530047407
C 1.6756633392335485 -1.0882738732933943 0.713070898553151
C 0.35842963791382815 -1.083272656937212 0.13592870495759493
C -0.2476923163829539 0.07529798706765235 -0.15090369003251536
C -1.6059037799463523 0.09012008997514553 -0.746170720909427
C -2.648825573895335 0.653089558657888 0.1667552373047644
H 3.194262842012083 1.7465559330487048 0.507060154704166
H 3.8435584335792883 0.6826163197803597 -0.8571504378812084
H 1.9449593952830926 -1.7412451430907676 1.474218081528572
H -0.13337955846219596 -2.0217087977969252 -0.06227177034939976
H -1.5488742542463616 0.6494972230780073 -1.699957113529537
H -1.9045836174022668 -0.9540614512598545 -0.988363847460309
H -3.2460794810207214 1.391965387334913 -0.41501455857570024
H -3.365253998264655 -0.13073296743193777 0.5338993227897496
H -2.231910687812404 1.1988660542715177 1.0357873336531118
