31

C 4.514917498009246 2.9900134824587683 1.371819111974826
C 3.677885573466747 2.068983108971907 1.027768372519917
C 2.8896031699890705 1.1046936198738622 0.6491311488495907
C 2.116303273131657 0.10436190575763721 0.35693996890427476
C 2.2664747721380656 -0.660579869673369 -0.8929084122660712
C 1.1444042343382876 -1.380483989632274 -1.3779729402950078
C 1.1666694052424205 -2.1640156651890856 -2.5939428181617066
C 0.11605656493936618 -1.2365945263656417 -0.5926287592790447
C -1.0948986043383817 -1.0764221804013114 -0.14168627279539225
C -1.3994973178593937 -2.0027517409547038 0.8494212442929497
C -2.594809573952958 -1.9856381361399495 1.419533592779404
C -2.016860150341511 -0.06326741034029645 -0.6020239353826919
C -2.4143707014253697 0.8669262857868745 0.46872184913317516
C -3.1342942949573707 1.893984628240486 0.09569732674419974
C -3.8565686592295525 2.900171111229794 -0.3663677516566548
H 4.501828960646756 3.924852903631249 0.8522090125885518
H 5.217847147043074 2.836354089681064 2.163018128802697
H 1.3431777176174158 -0.1695155217038825 1.0540718396193136
H 3.1260661812204247 -1.3621919694455387 -0.7766445447237178
H 2.599433082312306 0.056989614821886775 -1.7122312010315088
H 0.9764409549885027 -3.2390893408356334 -2.3056406216749816
H 0.41746170904130986 -1.835827839105071 -3.3408249383035558
H 2.19816229128893 -2.1756455948005606 -3.0072347164633006
H -0.7401582494435425 -2.799938610218716 1.25087461964579
H -2.8834455438972917 -2.683176211623778 2.1954433861470646
H -3.3607974487121752 -1.2748776661754029 1.144240034635665
H -2.8918223045952525 -0.4892588368929551 -1.1415214701755012
H -1.4931844119700457 0.5654794797990559 -1.3824299532875866
H -2.2028949504242084 0.8274592684599973 1.5002955293751825
H -4.8983336609245445 2.718651431733501 -0.3726715885407637
H -3.290796663342181 3.7403541790522574 -0.6636221202348956
