30

C -4.973717188940049 2.442203367372959 0.1371099077884921
C -3.757856720433479 2.072430463771849 0.4242353842345676
C -2.549731426891105 1.588079562978073 0.4024073400292875
C -1.3726385081313974 1.046227158213633 0.5388052944372402
C -0.8993186389971386 0.10908994917158203 -0.48911179608705413
C 0.5828254019399748 0.3045496513178471 -0.7082030457835159
C 1.072402929815649 1.5312823361820809 -0.5669298798112974
C 2.5322141521226524 1.7479877686813254 -0.7782753320041892
C 3.3154850229926534 1.0008889989029965 0.1961794595883118
C 4.613078972992075 1.1576264730927204 0.15497456274336835
C 5.898487791650306 1.3730959026715064 0.04521207702680517
C -1.1092739990484746 -1.3133128272194172 -0.11602472475953615
C -1.366849144020608 -1.8380001795676033 1.0564497867287275
C -1.5005045125836878 -3.2927026490012454 0.9722684960633756
C -1.3206857911641117 -3.65791084844339 -0.27472329816295155
C -1.0559890324200558 -2.442463603334279 -1.083545245394544
H -5.806143959968769 1.7534561493218224 0.08815403073008522
H -5.17997544174661 3.479905651579969 -0.06440922970546109
H -0.7399653015995906 1.277653743699231 1.398947139233789
H 1.2265078153157076 -0.5192805942924416 -0.9704034591504116
H 0.4211408326532232 2.381099046862625 -0.2986498248213286
H 2.764524365483521 1.366824841579067 -1.7953593619123571
H 2.98130725007281 0.3331338055099848 0.9516688181475623
H 6.267242845564897 2.1775907689430776 0.6230531421478295
H 6.404927004276364 0.7122687196417896 -0.6111378741252833
H -1.4685266364737906 -1.2617387793686725 1.978051156563464
H -1.7096363548674527 -3.9517138088547963 1.7877851217016212
H -1.3532843832266432 -4.660822128613072 -0.6748456339283986
H -0.0640176299051856 -2.538943550029784 -1.5528560487765517
H -1.8520297144617106 -2.3785053907695315 -1.84544265273695
