17

C 4.267632862080811 0.9243551819533767 -0.3592630675564912
C 3.2510497500763966 0.23444552254056272 0.06432519006805214
C 2.185057694778693 -0.2825433220878053 0.5993827786526479
C 1.0892316931671082 -0.8756260543482567 0.9806762453315291
C -0.18855948625595478 -0.5002877262166207 0.36420057610925877
C -1.185012415753159 -1.6309132582912986 0.3336414601214991
C -2.4207925788404383 -1.175411889551893 -0.2920207864939172
C -2.745868607412468 0.07635431014742422 -0.11980905057024047
C -2.9907859981021825 1.3420945349633417 0.10502023820687702
H 4.147617371738709 1.627839942211818 -1.1561994310851842
H 5.227719424355897 0.7780102754653189 0.10164647159664435
H -0.5961841888465109 0.3584482171051002 0.8990300927572917
H 0.02983639442916173 -0.15707835774396112 -0.6790056416877003
H -0.8111472829722753 -2.5379273448037916 -0.13145059768945894
H -3.1115153467553687 -1.7278440048840107 -0.881861919297131
H -3.5629786954102003 1.537133645432865 0.9754330482918134
H -2.585300590278284 2.008950328107882 -0.6106025219303062
