27

C -1.954158659378025 2.5678941331128025 -0.10384588854707351
C -1.777953783826157 1.2768697633351445 0.13566098330932314
C -1.6365626483341804 -0.003588335954048502 0.3162906338524518
C -2.7079424414410735 -0.650924546025663 1.0681318867148295
C -0.48563311439194434 -0.6307113872221848 -0.2730137603409245
C -0.7172187685527922 -1.5389406239792875 -1.414547627536959
C 0.6965024236976862 0.29215223264467255 -0.5414374154078259
C 1.7835894089984508 -0.4696900227081755 -1.1911805896118444
C 3.0690839531188487 -0.5362701768156308 -0.505819599447658
C 3.258888661976512 0.06108990310268903 0.6559233660934992
C 2.1999746179657764 0.8119834978354145 1.3067159029059436
C 1.0243104826742837 0.913228504546969 0.7493658107800667
H -1.5224199529489322 3.184804793499626 0.6339793333186396
H -2.490981875894295 2.7701249091858147 -0.9840834878825891
H -2.4132974401287925 -0.9301693199032647 2.1156073242155715
H -2.969108080316968 -1.626474997072344 0.5724015160422478
H -3.633028559502443 -0.08165448484793544 1.1388379606346117
H -0.05797735900618765 -1.3095811631134775 0.5650403364638256
H -0.35550987094727976 -1.160257483637874 -2.3924620833104404
H -1.7852134897443066 -1.8111136790792335 -1.5499211662013528
H -0.19263238444644967 -2.4970380110810737 -1.245493592427838
H 0.363884332711091 1.114812289294852 -1.2282751472632036
H 1.4991400836908273 -1.4470869611778328 -1.6058894428295718
H 3.8790877467497213 -1.0787602021592053 -0.9482526723193923
H 4.236646140787475 -0.009487166633120686 1.1427412492242948
H 2.4058548024654067 1.2969157683129249 2.282723006682131
H 0.28267577402406174 1.4918727665394198 1.3008031628891719
