20

C 5.850770978751672 -0.7459724026224339 0.07117414603408503
C 4.746539371712222 -0.374273313472962 -0.512458639842715
C 3.5280418033454186 -0.11278674125003145 -0.8381168048191844
C 2.2672679881476645 -0.028976287163318487 -1.1506041599663521
C 0.9734350437425953 -0.04622847440137469 -1.2800583962939043
C 0.07248391872880948 -0.5900729179376142 -0.2748395275440747
C -1.150168782965631 -0.09918338653383416 -0.07135332610799984
C -1.9993008993046613 -0.6825506432404719 0.9429270324339459
C -3.1596734888594376 -0.31233333451649486 1.2263346128467498
C -4.1275493965146905 0.6075829993038441 0.8855092360532375
C -4.16624011633163 1.5789849626924157 -0.010893604388663266
H 6.3900483607418535 -1.635967129678852 -0.22692805009911335
H 6.275627518231141 -0.1729227493113487 0.8851206098222624
H 0.5447478927387917 0.3650021205968718 -2.181726931258375
H 0.44447087704491395 -1.4233177623098197 0.3091110412072305
H -1.4266069513719566 0.7138474179473003 -0.6883857203124829
H -1.5299234902091707 -1.5506845438097467 1.5067951546089133
H -5.093434710234074 0.5144843264342409 1.5003540726430957
H -3.359294772812704 1.803818424716401 -0.663508864014946
H -5.081241144580869 2.1915494345561393 -0.09027147839167922
