26

C 4.1470771545051095 1.0500268321571082 1.3639393618610343
C 4.225066057118128 0.5857978079178258 0.15178503257749051
C 4.051593817395208 0.1349343796540637 -1.080064068116832
C 2.6852902242151617 0.1023141683876234 -1.5855411142981022
C 1.7725103665227875 -0.5235001998058396 -0.8569097306369245
C 0.3430870092989848 -0.5909817382592812 -1.3268642201521081
C 0.14501744291333385 -1.9408727829096073 -1.8798875273963425
C -0.7078658737593396 -2.5842555848010687 -1.1215772921741909
C -1.1097094786543271 -1.7113961297257023 -0.05003467348073483
C -0.5170741950821821 -0.5426371655613313 -0.1386164710821724
C -0.6730944352325711 0.5646659517015311 0.7441326505686092
C -1.8921781225814243 0.77398544985866 1.1979895124899558
C -3.157493958292215 0.9582495978855723 1.5128696416947478
C -3.9257864470545325 1.7941657718781865 0.6005991568330156
H 4.230417645316098 2.09182901101981 1.5237018174139045
H 3.997710179005566 0.3797651161917298 2.184404062239539
H 2.3889772160351095 0.5573986238183296 -2.5110429264287113
H 2.009194924824307 -1.0012886370507332 0.0841164650012481
H 0.6252853475542898 -2.3674063477904927 -2.786007570377795
H -1.0251508420488482 -3.6226262346432065 -1.3247787319436468
H -1.8232846321234897 -2.016022255069243 0.7263335081761222
H 0.024323163317737085 1.2670981187119346 1.1103713600516958
H -3.443419800851733 0.46279168261458886 2.4001426901571716
H -3.857582161997544 1.4791983985361847 -0.46613655918309743
H -5.0086385538124905 1.8598982288850918 0.897819500311891
H -3.5042720465312387 2.838867936398613 0.6292561258940705
