44

C 8.569662115173077 0.10059960490133034 2.1098072617307846
C 8.419677060671459 0.089876050118128 0.8181043255401549
C 8.193559773638837 0.0605591100087042 -0.4308441207672375
C 7.828774377365401 -0.18329494285610987 -1.6640490562267576
C 6.81728516319251 0.5974698074390906 -2.340513802111646
C 5.547860016568525 0.40934303027066166 -2.0360400655484625
C 5.173511150185111 -0.5654863355018245 -1.0383518853407327
C 3.9490384400584384 -0.8255408824045719 -0.6670452362808414
C 2.8281122172304127 -0.14179055434739463 -1.2374618132131079
C 1.597015739403603 -0.3926674724316821 -0.8746118245057097
C 1.2654481684952337 -1.3693957525837759 0.12092900636723099
C -0.032140743145396916 -1.5592205141804767 0.4297192410860708
C -1.0560643212084029 -0.7977860861473863 -0.22646166741866572
C -1.7804589084537983 -0.009222799249705572 0.5277320681894772
C -2.4882113723798085 0.6696026790904808 1.3991921673522858
C -3.6300912316866505 -0.03138481973262261 1.993033721561706
C -3.7587160371921904 -1.436212116014309 1.5491636880045214
C -4.8958745787499 -1.6192485977094613 0.9098749025670708
C -5.580843608212319 -0.33728345954939487 0.8985248791921665
C -6.88714587696204 -0.1311528365212055 0.27601478891228853
C -7.441666638118066 1.0808729997296929 0.3135558678772571
C -8.735202650785977 1.3195611515358157 -0.29357999397805157
C -9.254917462710424 2.5299667731968003 -0.23838831900629642
C -4.878264258574144 0.5848527736413806 1.5106790386348985
H 7.847352440790864 0.5339109259038689 2.765638149367172
H 9.45446405218336 -0.3436093280965121 2.5341150947345636
H 8.290249452489856 -0.9947422864058072 -2.2125105365135194
H 7.085585241694155 1.3168842029031396 -3.0760570897778723
H 4.829439490700745 1.0106678873816424 -2.562705244697747
H 5.980294518839105 -1.1382643583762793 -0.5481457966660366
H 3.7745862741971017 -1.5823072906856952 0.09659830828245498
H 3.013136214140699 0.6157232894893703 -2.0028102203379854
H 0.7584348336628456 0.1655636699055993 -1.3474751790509665
H 1.9824977211172239 -1.9574339467476451 0.6345849025678756
H -0.24623457811909777 -2.290890838125069 1.1722641599960153
H -1.3336092114508356 -0.7658067873880692 -1.2410176464252411
H -2.140021541394813 1.6481626190083691 1.5658663495044067
H -3.0220533240771705 -2.226422507759659 1.7193493824994557
H -5.265198110162128 -2.5554966297910893 0.4668845844316948
H -7.414403667351788 -0.9372344968430327 -0.2139060637061838
H -9.254110396979385 0.5239415417100864 -0.7763670571564265
H -10.227792214291682 2.7551771176944824 -0.6827517111738036
H -8.74032159230766 3.3479966341836085 0.24818172982003822
H -5.14264213749124 1.6197785629566757 1.6512807116847847
