17

C 2.5887892000046593 -0.4233518169702383 0.5661625885856177
C 1.433433625278709 -0.5431899968598622 -0.05176331818469923
C 0.2672885112823147 -0.6084150485606159 -0.5997564915567881
C -0.7471592543485143 0.2981099025590286 -0.111201244883643
C -1.7662720707964417 -0.20413530434046556 0.5638879364234239
C -1.834783919887969 -1.6583950698194265 0.7945388495996968
C -0.7118888750099684 1.7164908696224035 -0.3173188362111212
C 0.28252306004067973 2.2604110667942434 -0.9830574711833872
H 2.6988520431109895 -1.0368194330501896 1.4205821072547524
H 3.247042375244285 0.27363357375132186 0.11889025816102365
H 0.13066398218859984 -1.313006246712418 -1.3623490865434087
H -2.8407219368626375 -1.9757133405226233 1.1155797933715281
H -1.6317125138628215 -2.1461711922707862 -0.20147260457311278
H -1.0859509692644669 -2.001381954404441 1.5472220372593897
H -1.487938657362081 2.3421769021377123 0.06525107961713429
H 0.35379473143941254 3.3381344315534696 -1.1662674650837046
H 1.1040406688052633 1.6816226570928827 -1.3989281320526992
