19

C 3.4861845353481193 0.7320302770078599 -0.5040805370290261
C 2.566725478155089 0.055719572216792364 0.15504883277326897
C 1.6005982287069243 -0.5661647622207218 0.7694116029217581
C 0.2521162448248738 -0.19459550762088743 0.37352530397379563
C -0.045195796919729705 0.9853245661512723 -0.108661617553942
C -1.3789064085109395 1.3788929166890374 -0.509874163345376
C -2.326862340238109 0.4858801984383225 -0.3737130533343885
C -2.1669343302325186 -0.8815196555410858 0.14847420762834165
C -0.7882441584972242 -1.2171417491316168 0.5417938754209561
H 3.7777583990432846 1.6393314224643927 -0.045834447239686306
H 3.8039090492105285 0.271331447641611 -1.4020127749445803
H 1.8985342539273848 -1.2745182416140253 1.4902537770648177
H 0.7836830959972898 1.7028494608653673 -0.20532089421101654
H -1.5607356337310017 2.364961227457152 -0.8995432124420814
H -3.3546358368352167 0.7585656916190671 -0.6717087260679895
H -2.857529799887342 -1.0508320059792573 1.0114442920376918
H -2.466549339413792 -1.5591404280632384 -0.6957828977491486
H -0.7795521301463704 -1.475250189941929 1.6447027817819195
H -0.44436351080134506 -2.155724240438121 0.021643362132386032
