35

C -0.847577551182057 2.68045025645194 -1.3145251439777195
C -0.989518131475688 1.5090707205389124 -0.7151914144944488
C -1.155715668329288 0.43655431167392805 -0.058574833186048315
C -0.07284876319382712 -0.022934567237308478 0.6951757901753038
C 0.9700661516262562 0.7181221650194971 0.6654272629635731
C 2.059254608002326 1.4345492856758268 0.5130591646128475
C 2.909979447133078 1.027473965726695 -0.5777642903219055
C 2.3915683953942857 1.2671956172901595 -1.946835355874328
C 3.6657478044038396 -0.23881685036240133 -0.3906904355004433
C 4.60377397967098 -0.29441921579995184 0.7480051347391976
C 3.53081683916388 -1.1348914810016382 0.6985109645693186
C 0.1295189147856101 -1.212515314729402 1.5382781630850457
C -1.1569217052133949 -1.7831321735912984 1.971234848535438
C -2.3558040185651152 -1.9730379826829063 1.4137721549139897
C -2.7573679825591855 -1.6126061540441865 0.036248573566994624
C -4.191481770461136 -1.705421516664619 -0.2131632019611279
C -4.668187538045868 -0.5169459268420309 -0.5421019376957227
C -3.6058413191282734 0.4486750401899465 -0.5336308024936144
C -2.4817627109498406 -0.13564057201551133 -0.2015770227266549
H -1.144711973824072 3.499011866546549 -0.7346414842937549
H -0.4554256161278654 2.552387223406474 -2.2751323651007898
H 2.120693133580975 2.197693971456629 1.2311370351027213
H 3.1562653187252403 0.8950140291070523 -2.6741478949076902
H 2.3513388655906704 2.378052225131053 -2.133621774421792
H 1.4189468840852184 0.8136593360331295 -2.1742352221754864
H 4.086219543045202 -0.6578641887158487 -1.3512035866898124
H 5.497307010863115 0.06860727515362268 1.2561471462484317
H 3.0632644188300855 -1.9356703298852564 1.2791869002600502
H 0.6841254779960318 -2.0047453660740793 0.9726323367362203
H 0.7284105251756554 -0.9267392278596841 2.4285306757144287
H -1.1656459647188886 -2.1562841107252 3.0121714358133236
H -2.170830023342151 -2.2321776141377985 -0.6855922384982787
H -4.805080572752635 -2.6219056881877223 -0.14296453177243437
H -5.707975650786302 -0.28413109420289817 -0.7865450195957826
H -3.6346003574182184 1.523362085355471 -0.7559493224389461
