19

C 3.8122600117756487 0.8725016014365793 -0.8539349601623553
C 3.1157441515092588 -0.12742222919941598 -0.35775529536518597
C 2.348322744893507 -1.066978809649812 0.1353291474516459
C 0.972274263857929 -0.7304814155608176 0.3438744565542939
C 0.0006641732334782616 -1.1644942251827906 -0.396689529128146
C -1.3846019030544858 -0.7922584894060694 -0.1424824677520595
C -2.7011607559102324 -0.8386734574982204 -0.4299037674040364
C -2.366292999567705 -0.028964676293980952 0.6979734742452279
C -2.391095748824081 1.471968720132544 0.5796483989581475
H 4.250775174337282 1.5019821871237242 -0.12757911764097368
H 3.8346937992845156 0.906036423180806 -1.9106321350319613
H 2.8390369736034193 -1.981207727881151 0.3264325741296765
H 0.7385977809796344 -0.07125842574441299 1.1751806328615646
H 0.1850237609508363 -1.8225475564803617 -1.2349318690862736
H -3.4529005842310876 -1.2567353689059926 -1.1116009516517362
H -2.57919724321221 -0.414779250722316 1.7140398015700788
H -2.2002720507652795 1.8059000041532098 -0.4461561389679032
H -1.6119885190106187 1.8800725491250962 1.2735841246416075
H -3.409883029849793 1.8573401473733318 0.8475467193790992
