24

C 5.170161275752468 0.4903248084968032 0.24890293385927748
C 3.93517638148762 0.2759896312579792 -0.12427242864630907
C 2.6690245944960416 0.2880823232178265 -0.32727968200798113
C 1.459720833491486 0.09082451306534313 -0.7999695236871058
C 0.41235359619352613 -0.5778727318410326 0.019132149366726355
C -0.5432758258591806 0.4293668794434445 0.6226263845730545
C -1.233167472372917 1.2173822313410252 -0.47303744202110515
C -2.151496134580026 0.20157961122607823 -1.0677015250842452
C -2.40331133958676 -0.8541989345009373 -0.00828156539495109
C -1.6883172637456425 -0.3222669738722083 1.1615698035054511
C -2.009936122481866 -0.48765952619277736 2.413286246882288
H 5.660105665758812 1.427607786891008 0.022727072658498427
H 5.752279624001017 -0.24307529718994322 0.791213881483618
H 1.1645727347653276 0.39944193971842057 -1.7956179839286457
H 0.9388242712493007 -1.1114517635953804 0.8307600296542129
H -0.09687911415667516 -1.2963435583598522 -0.6592888556142639
H -0.5337131031622838 1.681222506794849 -1.170180732135028
H -1.8777672386208184 1.9735107988279246 0.06048328453623946
H -1.6607783401633434 -0.2757674507362743 -1.9328696401129388
H -3.0894251672943 0.6717540734246126 -1.4228877100855715
H -3.496454238150926 -0.9827747771059195 0.17277113826939694
H -2.032911712267764 -1.8475888673509522 -0.33286853298589336
H -1.4505239470986326 -0.07470662282608981 3.250802232097247
H -2.89426195765399 -1.0733806001337602 2.7037638974578937
