18

C 2.8759151008449466 0.7419288913153534 0.7992313382677418
C 2.3080773037502658 -0.1436745268058483 0.03553650138737219
C 1.658869908323923 -1.0468571984814818 -0.6684926302601618
C 0.33581171103545515 -1.4236606390140771 -0.1813307470733863
C -0.70217801024568 -0.4769955837960654 -0.6806538569278846
C -0.5363456764047932 0.9709469213459463 -0.2872474061271374
C -2.0494518686142262 1.0279412657176876 -0.10323379610836617
C -2.009932368247886 -0.46925624522639725 0.12135974758600052
H 2.6800828160257657 1.7601761299772969 0.5369824780705155
H 3.4696102070837083 0.3532592531145004 1.5986907837038151
H 2.1937377689604727 -1.3889688017498583 -1.5146580601838928
H 0.27115068809552045 -1.4998094385803462 0.9281579525078096
H -0.8984006859028836 -0.5827296508453841 -1.7823062101502856
H -0.0012866594711146012 1.0961242620219422 0.6800086032086768
H -2.609771316101889 1.2519586818643875 -1.0153004566203987
H -2.348026337743658 1.6252749962870998 0.7722998088936385
H -1.8714783711184722 -0.7428119404622424 1.1753958480515452
H -2.7663842102693077 -1.0528463766825729 -0.4144398982256948
