18

C 3.7659726175228307 -0.5554478399144848 0.8160595206485768
C 2.577234927330299 -0.853785393086994 0.3488977360535291
C 1.3821275151082686 -1.057653561563077 -0.1337603303912685
C 0.655738006491387 0.089700647018611 -0.5770044497868471
C -0.6404496205193698 0.20407655821361975 -0.3563091186646757
C -1.452363729903074 -0.7763555314462236 0.33253111994322554
C -2.5811838386519854 -0.2306395993785345 0.6804310142883983
C -2.671852429680305 1.1900522012962738 0.2684893231089209
C -1.551243296295032 1.318431811650914 -0.7423628891158749
H 3.7951300359429094 -0.3501004337533683 1.8540163178831408
H 4.5398437938312615 -0.5579357390019551 0.09606941330925607
H 1.0835599220761962 -2.0777971132836166 -0.140127269076372
H 1.1301426615880141 0.9248693857807249 -1.1168647952095372
H -1.1784817467970337 -1.8077106253564386 0.5352911441567391
H -3.377684543264469 -0.7457488427660762 1.213502382410794
H -2.456737923111097 1.8543428827506716 1.1498685460527636
H -1.9470133297305268 1.1235296768570902 -1.743422768836282
H -1.072739021938427 2.308171515982893 -0.6590354472704061
