14

C -2.173853265832453 0.9595001697277955 -0.18150847374585968
C -1.8229287698052734 -0.22748576996101144 0.20798497469126587
C -1.2576875174701398 -1.388752250778517 0.4724797595600284
C 0.10303369562092116 -1.630525995654533 -0.09997391245468337
C 1.0900291913234637 -0.7996741110194289 0.5809780259319884
C 1.4669240577263911 0.3238714796277648 -0.005772189117511506
C 1.6874619285504058 1.412193965422211 -0.6751979618213733
H -1.92510892755457 1.7982298329758326 0.4244768940958205
H -2.696867006118137 1.0768334154141925 -1.091824693668251
H 0.09750124279285553 -1.4457451667835879 -1.1788212275614804
H 0.305459226006078 -2.72788129388524 0.03184039934761709
H 1.576952342367495 -0.9492869619673161 1.5045761663707746
H 2.4800680848943455 1.3464701911247052 -1.3803560725685249
H 1.0690157174990198 2.2522524957570638 -0.46411892424016293
