12

C -3.187217276819235 -0.06469713034268047 -0.40943367442156803
C -2.1102747442506598 0.6383244407960649 -0.08890080729222778
C -0.9027335146910052 1.0735116829494384 0.19843604460575723
C 0.2242160998874775 0.168351854066703 0.14868555560574198
C 1.3714603445203952 0.6399951800160576 -0.2752271181939567
C 2.6159312207823584 -0.1154475591986919 -0.39556808434715907
H -3.421689178386762 -0.08626760001863361 -1.4418034739898646
H -3.6917641241230914 -0.5273019344928295 0.40476322215440685
H 0.1656857070833907 -0.8568447264830451 0.4385611912806345
H 2.7166488575765797 -0.6712237412674197 -1.3546468850742468
H 3.4661117244651916 0.6248524677788233 -0.40658021900889385
H 2.753624883955341 -0.8232529338037899 0.46383709004899093
