31

C -5.703649758359596 -0.6282637966791164 0.2206392354390268
C -4.842516716581768 -1.6137757472246332 0.34045883052200476
C -3.94065842801474 -2.5640966154099285 0.38092125792434123
C -2.90989279139943 -2.526128639480166 -0.652233452550509
C -2.216116780095396 -1.172493471968715 -0.5065416747796093
C -0.9438624802031768 -1.0628785472262903 -0.6278876263439525
C -0.20169491407694748 0.164599924198873 -0.5081550317418391
C 1.0983397974975373 0.1152474379497066 -0.6585184664110407
C 2.3161697529903944 -0.3271630868453147 -0.8624286110517931
C 3.6274843255828184 -0.2440516443842922 -0.9909188682571983
C 4.517615973559365 -0.4307920791527569 0.11436621105050566
C 4.780971039843865 -1.6723346528053127 0.4483804421929523
C 4.988604888580307 -2.9477994874994984 0.7148378247619692
C -0.86558379144171 1.407461923038419 -0.2319591951535594
C -0.3712383704673411 2.6095332796868895 -0.08932661093248719
C 1.005227429133454 2.996447406628334 -0.17679188788779854
C 1.299435807096256 4.296566469974622 0.003827844973790618
H -6.541730542474184 -0.8406217655878727 -0.38669995376304406
H -5.43874914275437 0.2541124932684722 0.7529185129371013
H -4.07401617044869 -3.2513183689492426 1.1697639287448702
H -3.422380112305762 -2.49141951928278 -1.6514973674376776
H -2.844202561895517 -0.32887457360832584 -0.29964466250192784
H 4.0236778476593855 -0.026027442468544878 -1.9758835819261935
H 5.003817123064526 0.29020983202305617 0.713222029494632
H 4.307194426651394 -3.363294147516385 1.4062503904047308
H 5.807235175197186 -3.370683666082299 0.19703263271011875
H -1.9864499638018782 1.3615023044419898 -0.11667359912593098
H -1.141698340147265 3.4122719073654126 0.12649199696323285
H 1.8197340889770988 2.3496914982125165 -0.37194125845910986
H 0.5265834426750116 5.010696702092058 0.20541872475788012
H 2.3223497459597406 4.59367607329041 -0.05960622112054251
