35

C -0.5243376766438106 -3.814054375794605 -1.9780721465877116
C -1.0664841492852017 -3.34506414733697 -0.8622057434102648
C -1.6285451094714574 -2.848018704542745 0.195128575471844
C -1.2916040120709231 -1.4288617258174088 0.4532054484167895
C 0.085141311204708 -1.248315292285065 1.0568771478004144
C 0.07875693069131992 -0.06617535955889249 1.9296309195445103
C 1.2300214526845763 0.5875825653398188 1.9871037639962457
C 2.4235154173181765 1.1069527455544064 1.810015830734803
C 2.5303504493790574 2.045631840300726 0.6942599706635195
C 3.413364172733422 0.6706022452750958 2.722152981878576
C 4.678895630134489 1.081617033795229 2.680557212765681
C 0.9406410537680626 -1.007796535213215 -0.154464385606017
C 0.18162081672613786 -0.6631661937363156 -1.2152293797704912
C -1.144329967651436 -0.6677869871709596 -0.7781521688744104
C -2.131294683310021 -0.08327806454033362 -1.3569067840936342
C -3.1564672454390967 0.4473830366894368 -1.8468265563591513
C -3.400486811468648 1.909002822998215 -1.5826841703823398
C -4.174462401532194 2.630587636624123 -1.8597215992337908
H -1.1109328867308308 -3.6647778290067703 -2.8535619427525822
H 0.4256443759712314 -4.275992446612147 -1.8470496481066705
H -2.2459484306039084 -3.497324518027997 0.7425655473164187
H -1.997875570733485 -0.9168358151698793 1.1396489502863625
H -0.6408119316386429 0.38491349915237516 2.518604094317256
H 3.5391501648310832 2.539687780468894 0.7496753300092034
H 2.3685966065794934 1.592085929352351 -0.3104536208932396
H 1.7118490065765717 2.809757621202037 0.8378754060432994
H 3.175702661666048 -0.03782570619630104 3.5096450506590235
H 5.059780700068695 1.7881639955013087 1.9250712889478812
H 5.408536537137329 0.7508057094131015 3.3923683995419025
H 1.9964442319814046 -1.1181412696176187 -0.12242450984305356
H 0.6577519873445158 -0.4594802376427936 -2.1694438459348824
H -3.7984128808021116 -0.14051869825433758 -2.4070693769066707
H -2.489120433372095 2.255750884908166 -0.8932904683878017
H -5.177842453332447 2.8960712503784567 -2.3831449453356006
H -3.9268068634722986 3.786817309949723 -1.4319684123677048
