42

C -4.917545092847057 -1.326496390516037 1.568595765656047
C -4.221061540333006 -2.2451180283202565 0.9439105620672008
C -3.286972580405627 -2.8652516472988765 0.2555946222039839
C -1.9403700099805323 -2.254591890928879 0.12505794919959443
C -2.1252037782753863 -0.7602554874913291 -0.14041165161142424
C -2.907230485781076 -0.5369627030520872 -1.4080262123180993
C -0.8397227590113454 -0.056872899200283336 -0.2184967214038435
C -0.5076815949524731 0.6513271417486673 -1.3012131665909008
C 0.7946305346259153 1.3500205632420195 -1.3550923568214197
C 0.6617284122863228 2.4936261602104146 -2.294410039695303
C 1.150379330862787 3.65866308841011 -1.9832533595819912
C 1.6333460008416731 4.783750958442708 -1.6145080368436866
C 2.161112530836906 5.926815396557724 -1.3322124884468247
C 1.167231380070788 1.860017478323752 -0.024645255543003692
C 0.8528120689587877 1.1731518465557966 1.0511497815407482
C 0.12470979703520312 -0.10891775528464216 0.9181886614806593
C 1.1140196355003273 -1.1811930027507593 0.7722097921088137
C 1.4497500520218034 -1.7459473808822887 1.8924328771884698
C 1.8408605819751958 -2.3436851957431033 3.0080448339356702
C 1.7312372583353326 -1.6619001526566877 -0.4154370735683425
C 2.9938508377672526 -1.9723695150058702 -0.5471010125298745
C 3.9965987173705697 -1.8734708792089443 0.5280743284582775
H -5.502248760301183 -0.6140411474361078 1.0165793545627346
H -4.917151499773661 -1.2631470723564044 2.641134605511276
H -1.3265633528510363 -2.3468162590894375 1.0310690908436437
H -1.4238073718202575 -2.7520231171911504 -0.7006229130575196
H -2.775933246463759 -0.35307142462993624 0.6890813707353589
H -3.8836888888134125 -1.0692026099774485 -1.3995885051182329
H -3.1124217069871665 0.5375622612781036 -1.5672860609800388
H -2.363741151990141 -0.9123116265679921 -2.3017875685385567
H -1.1724856561646662 0.7212095493131635 -2.1352162148776603
H 0.16484487134922413 2.3842746063654086 -3.24011852276158
H 1.6910610623187152 6.8223061786958805 -1.7047542491733796
H 3.0539996220531123 5.999214064177954 -0.7368012218466382
H 1.705625395684363 2.8149918489729977 0.022924338233642354
H 1.110008146914837 1.515089360273839 2.0416598010719533
H 1.2518450461385706 -3.180266588292691 3.2564608991005106
H 2.6716693573161403 -1.8923035358511084 3.4669254800431912
H 1.1047740069900005 -1.7884081254533157 -1.3081712695072756
H 3.7629515073589057 -1.0634779450563483 1.2541282350521277
H 5.02104619622791 -1.6981127393694513 0.15214501222181742
H 4.013737125911364 -2.8258053829576975 1.0937865395999302
