18

C 2.618308066255783 -1.5316211418341992 -0.5803197600585803
C 2.160946395605797 -0.44977653373526116 -0.030357643215686052
C 1.5207431075299638 0.6339884645285152 0.366846170822317
C 0.28301193949698017 1.0061713498819274 -0.19643022521980305
C -0.23247036775478142 2.3354782468497333 -0.47597152371522844
C -0.5283421330537831 0.029635831716920295 -0.5157155498659357
C -1.385461005976386 -0.9562386979993296 -0.6900721720321679
C -2.231417220044917 -1.2709985822441574 0.4382986665314775
H 3.2327600432582373 -1.4064817788727935 -1.4359759467291542
H 2.3282299036638103 -2.440247768153437 -0.11600089891220218
H 2.0691926779693683 1.1408718912366025 1.135381768254079
H 0.1350350556988983 3.0202688315247075 0.3442827520495279
H -1.339522227988319 2.4201482053460834 -0.43542370896019356
H 0.07889347890394825 2.7615326139234404 -1.4510028402435797
H -1.308562483620264 -1.3633467770458494 -1.653879732803627
H -2.9542448828021937 -2.0912358625627956 0.27056227035717056
H -1.6027903893885234 -1.4696052934071007 1.3246413864911544
H -2.8443099577532545 -0.3685429991528006 0.6915304405188578
