18

C 4.350532111054603 1.1423072909846776 0.0179624887427637
C 3.359284220485305 0.289944503667829 -0.05345412588919949
C 2.5884343010348285 -0.7220166165126831 -0.304707647960503
C 1.7906301744233435 -1.7322481640100194 -0.487025842719089
C 0.40703480715046536 -1.4650213541822976 -0.7910917559904519
C -0.26811243912316235 -0.5597014287763842 -0.12357717326007424
C -1.6677005807875036 -0.2587024405930245 -0.39886080692324466
C -2.294831007608007 0.6562868108717222 0.29915579218741595
C -3.7225697095556027 0.9448701797275975 -0.0011033415837524187
H 4.262471420561571 2.1438647424475743 -0.385901451541015
H 5.302084810213561 0.9045424590768326 0.47616901655636773
H 2.11251652060796 -2.756346280472742 -0.422076803549914
H -0.1213938048857191 -2.00809276426138 -1.5864567064868347
H -2.1488514819232956 -0.8111202251643325 -1.1840793705265331
H -1.787666294917495 1.1947021630819183 1.0806302550672715
H -3.7637032158564767 1.1417332560501339 -1.1112844988183503
H -4.068968523226542 1.8354500358673898 0.5665910456408328
H -4.3291913076478545 0.059547832197242176 0.27563491454361316
