22

C -4.012388622922018 -1.1379305200532994 0.006513075321707009
C -3.599192723474239 0.07012287868484442 -0.27954797351457017
C -3.08969435334965 1.2529906138414797 -0.5745221810862289
C -1.6902953757132764 1.299974430220448 -0.8200719453965121
C -0.9158381249540828 0.7691680374638811 0.09931271845963528
C -0.23948737029038672 0.12718653518445136 1.036257939197464
C -0.06123482734594664 -1.2677473019118137 0.8229092931867246
C 1.0088160402870876 -1.8213846177509452 0.4037071520800206
C 2.254879118562998 -1.2479772726879887 0.04975176599141933
C 2.5981405231645778 0.00995536635136462 0.07337392534945245
C 3.998347829192407 0.3842331059249863 -0.35410189362226707
H -3.994151501365796 -1.3851900072566168 1.036138266024249
H -4.312389161587692 -1.7149530360032077 -0.835949549029348
H -3.8121418079881266 2.027046848233421 -0.5885270500742389
H -1.1464159031873957 1.6959819255840416 -1.6340881008697665
H 0.06910251924147862 0.7578259931502865 1.8232755184924667
H -0.9427945096665055 -1.932604619418946 1.0447837790301744
H 3.02316127261238 -1.9975122978085436 -0.2899450312975353
H 1.9444907179640856 0.7922026949187859 0.37828913706924
H 4.676119508367814 -0.20451372687216998 0.27881037192357566
H 4.089400439978609 0.11625862377360499 -1.4187052106555735
H 4.153566312473937 1.4804207114647572 -0.2576640065799847
