14

C 2.8408935935832753 -0.2180100003105612 0.001823537399006206
C 1.6741180872997405 0.37950768419904785 -0.05724231090135538
C 0.48573931772116397 0.9024990630692146 -0.17564537860659998
C -0.6032448992538426 -0.012283943041949694 -0.4899868050410921
C -1.2484937790756747 -0.8884376352765029 0.4982567670316153
C -1.9661587260551427 0.3814449903517435 0.013357291672787508
H 3.3815729517364197 -0.2778800425148007 -0.9117188537179538
H 3.0991375710343294 -0.5707098063985117 0.9651963293931148
H 0.4645378754524015 1.96295121443593 -0.022543230545712414
H -0.5930982927922199 -0.37374019864914637 -1.5599573689793385
H -0.956725838791084 -0.8749292360832531 1.5528756106701969
H -1.6720410450839753 -1.8617183835289008 0.11555472594372737
H -2.077541679935107 1.193605788969648 0.7388690567450603
H -2.828695135840245 0.2577005047780481 -0.6688393710634507
