21

C -4.05992234496679 0.8000192920574333 -1.008445494629027
C -2.9480849672732674 1.0757138569859883 -0.34698856464996186
C -1.826008588815277 1.270322152419378 0.3003147558595588
C -1.0014629144225353 0.11511599951813963 0.49282569989166936
C -0.8878721580131811 -0.7703357808852989 -0.47399285719786105
C -0.03955336160691706 -1.9644127657263162 -0.28358167579532234
C 1.1624849416069838 -1.5684040432974065 0.4561091153583106
C 1.8064646307701138 -0.46685223671350845 0.18267834662135682
C 2.995380634088361 -0.07291296056251204 0.9125776735702442
C 3.641627133516753 1.0420359317918866 0.630972472714289
H -4.873369223409004 0.5272203003516219 -0.3913687259253049
H -3.9747644482345046 0.8913854298567295 -2.056822033374861
H -1.666115936075544 2.2708496569437653 0.6047802358174853
H -0.47687891049822057 -0.029776778229463452 1.4222847619978205
H -1.4042491043166456 -0.6509261327389859 -1.4205314695974973
H -0.6146262086789999 -2.7344864443062873 0.27042116836267344
H 1.5378974381514228 -2.213774187868076 1.2661904690198793
H 1.4460885069724754 0.17998330742873592 -0.615517022509183
H 3.3578658855341237 -0.7131038008014703 1.7076665067408854
H 3.2997819368412196 1.6913851058109282 -0.1531682290901403
H 4.525317058782017 1.3209540978663523 1.1839491003187868
