28

C 3.814734463215993 -1.3126418168403504 1.5413279404040559
C 3.342639459520688 -1.1645592549214336 0.3343791920436088
C 2.5905913356562973 -0.973481401221571 -0.7346792301090712
C 1.1433798061597746 -0.8419397756221658 -0.5447139854486381
C 0.5813074463276627 -1.963794455441819 -0.20363803171124933
C -0.5906122053640165 -2.2249707505432013 -0.6778808787342149
C -1.8055917983121923 -1.3832138499740134 -0.7849768096852903
C -1.759998516400031 -0.22478141582509065 0.1914986311291541
C -1.8384229995463959 -0.6415544701194157 1.6312140615646213
C -2.980735553721697 0.09856576080770878 0.8817820053109032
C -0.7263267507945855 0.7379751759120974 -0.21932971608144847
C -1.0759122699078798 2.0196930417503736 -0.06629604113596864
C -0.1468538833370414 3.130195358682781 -0.43312241844434823
C 1.266847102395599 2.7559421657678342 -0.06924492966035163
C 1.6186387042925245 1.4867900336115827 -0.24263553948217842
C 0.6333946485623007 0.5076256687667259 -0.7748007804567784
H 4.1103600543515855 -0.45607478639708726 2.1162451353972496
H 3.907433368322388 -2.2870758721471494 1.966454686716421
H -0.7250921530258264 -3.224542574527645 -1.0674734428384232
H -1.9469328367409542 -0.9760430992136264 -1.7989441419920644
H -2.6718123898574455 -2.0550325225261283 -0.513407162659578
H -2.0231326281297797 -1.6783995533709708 1.9164400649006819
H -3.228631385691375 1.0356020500418652 1.393968106983259
H -3.9017506232727213 -0.5204563758823414 0.6801469018671981
H -2.0245552310847046 2.2883573351147435 0.32064549242810586
H -0.1831623858142316 3.2071525400332144 -1.5408738105441395
H 1.9697494014270023 3.481268029190037 0.316213918353353
H 2.650447820769523 1.179394814895895 0.015437449699325773
