15

C 3.1105284154601756 0.2317505501985453 0.8216158127069758
C 2.430716021308244 0.32683538934155015 -0.29744693658846005
C 1.681439478505327 0.4404080101578623 -1.361209918057608
C 0.3066250251324171 0.7651041390802692 -1.150066490787827
C -0.4711558485412191 0.29212846037206674 -0.202951443094642
C -1.8784714019500044 0.7532144408560415 -0.1490772140060183
C -2.793697567370873 -0.37083393386198016 0.2449603004044423
H 3.5525531523020404 1.1366357261011641 1.1485688797804978
H 3.125856786883897 -0.7366630998882693 1.2489443629951957
H 2.1968825630060858 0.2737020651107483 -2.276271090485704
H -0.13950087089220536 -0.41804524319639547 0.5425419625789286
H -2.0308743001148857 1.6542031327256579 0.4480195218901399
H -3.017935367619237 -0.3672624953786816 1.3323263601026416
H -2.310280955943449 -1.323256672423583 -0.06972476727188232
H -3.76268513016615 -0.2190011871991839 -0.28022934016657364
