21

C 3.553599776035731 -1.1631567809648482 0.8324736213622898
C 2.8054351476115658 -0.588625746621928 -0.09068405729593511
C 2.0158785951838176 -0.006670838738673739 -0.9393873055067559
C 0.6770405085944234 0.28272738501673 -0.47377679563036923
C -0.2997333619282689 -0.5898400900693471 -0.6697098868969413
C -1.6644063418570616 -0.36494827106598365 -0.22975828847562632
C -2.729431675043621 -1.3909277842681305 -0.48025697739048756
C -1.9346260922283127 0.7614691678867749 0.39208923397232553
C -2.1471452202726597 2.041582802490203 1.0760005035046059
C -0.8950916811517609 1.7507996118911762 0.6306144136597392
C 0.48992249112000197 1.5837920900381641 0.2143705571346625
H 3.50787955915739 -2.223142955040342 0.8272156437563025
H 4.0938692329339235 -0.4959520935605498 1.449753730168864
H 2.444888215262952 0.19452814826795659 -1.8913535057059347
H -0.03065640876860266 -1.5130734016775111 -1.190852549971779
H -3.5557723646302266 -1.300177964558687 0.26067908311778953
H -2.320226786986503 -2.4153284881630386 -0.3555669812246007
H -3.104812344701092 -1.3218670258414433 -1.5194863076363285
H -2.8508973474149886 2.690719132517218 1.56639549527953
H 0.7297354426243816 2.4433952149974645 -0.47924519801248255
H 1.214550656453692 1.6246978874678186 1.0704855717901727
