24

C 6.428059101844571 -0.03566958174155841 0.05539827713414561
C 5.184861402650594 -0.3279423255957705 0.3746783262977814
C 3.9264449605314513 -0.627258251680882 0.6021933379087484
C 3.1098367508852673 -0.8604668441074288 -0.5491279596399312
C 1.9006794134201146 -0.38190062491980237 -0.6182946204550467
C 0.6529515977747294 -0.038681364348895346 -0.4878171711517527
C -0.5315896842091281 0.4716219785049026 -0.481735081869267
C -1.3764684231246491 0.41368257784407747 0.7176809638592545
C -2.193872831020653 -0.8255405313915746 0.717617711035003
C -3.189942810550255 -0.9924890642248125 -0.1337675252632069
C -3.5269183577789414 0.02383438675874064 -1.1017605441125111
C -4.362402360915712 0.9434095223927893 -0.6899335212610676
C -5.208633111187733 1.837660199347203 -0.20716299877196773
H 6.613133570877762 0.9976031566804715 -0.07921424709262812
H 7.068287155615393 -0.8738702603217866 -0.02284302432975789
H 3.66966237942918 -0.6590239577233773 1.625549897213507
H 3.4766982195157503 -1.4344938342243967 -1.3794852428777267
H -0.9150065256333261 0.9512604197552167 -1.3705099140276293
H -0.8295677408194349 0.5363053815569887 1.6675835426220138
H -1.964423104257422 -1.5996646007146365 1.4287623505377043
H -3.7643471409381832 -1.9124677848221814 -0.10264710078207476
H -3.1972468976500243 0.13493485894723223 -2.0970716790647725
H -6.225546463575745 1.5935720910239022 -0.354387124772217
H -4.744649100883432 2.6655844530054504 0.25601327994590856
