30

C 5.095368539324318 -1.2629546178348316 0.8666711220080354
C 4.647258178525259 -0.03548270316536037 0.731266532856042
C 4.117884892425437 1.1533728550754618 0.5542887854990651
C 2.776778305187099 1.1889027966454022 -0.015977838766059453
C 2.4463716479325215 -0.060056648763025536 -0.7389802592100145
C 1.2741851844877892 -0.6291581137976721 -0.6897950198058297
C 0.14862194659596573 -0.12791952915572205 0.0667461129511085
C 0.37598206721225036 0.965592524645963 0.7230883209911463
C 0.5335838401175922 2.082492074686146 1.4196453581044097
C -1.1294627898720657 -0.7200363671417493 0.14023304427207228
C -2.0272406879466747 -0.1342037920516499 0.8675987718702507
C -2.9591189056271148 0.5326241575557671 1.5180012282523137
C -3.7150650052503513 1.478408136787018 0.7257873943367296
C -1.5839305987040406 -1.9264383624635664 -0.507620179206139
C -2.6749382830292507 -1.8127410927643102 -1.2284980882383516
C -3.7783485856350607 -1.6203221160438894 -1.9187295664437756
H 5.621904733296097 -1.6408519179603602 0.032561699155893346
H 4.865428328757856 -1.7142763182375245 1.8034478434792445
H 4.743095742682015 1.9478476989067872 0.8533347578893962
H 3.252243964188911 -0.5122364902307358 -1.343002714115938
H 1.099275834490924 -1.5467549293145062 -1.2462190284300219
H 0.866852639317386 1.9105755490697374 2.4013953478017513
H 0.29987902645754694 2.9461287727112966 0.8726389126205399
H -2.996202610281536 0.2593429687214197 2.5305920685682204
H -4.220027898491093 2.2279123180433205 1.3980423862917164
H -4.554332145449495 1.0106540303081348 0.14929446573180857
H -3.0666449247351277 2.046333046980999 0.04509016522165021
H -1.168627200407176 -2.8954229045368707 -0.48983500232862426
H -3.6167546505775903 -1.3402334081108536 -2.924815435412063
H -4.674020584992698 -1.7710976185649885 -1.3735170641312973
