19

C 4.07052370205247 0.2064320613978469 -0.1862698768406634
C 2.8277524292783687 0.04284828963659432 0.20641813158778632
C 1.566761745562994 -0.06953731519954542 0.5261689176090466
C 0.6102560206409067 0.60216337924662 -0.3514141837074597
C -0.7564006735457987 0.4850880862406794 0.22451409754602167
C -1.2618495615530758 -0.9505388905484644 0.40791672538022666
C -2.654495756511018 -0.36161619175654963 0.14170235232917336
C -1.9101707514907453 0.6843654871060337 -0.7042105927458607
H 4.425480440164886 -0.5361189162658683 -0.8536223429262488
H 4.552474258962941 1.0599155472709865 0.2158952793860726
H 1.3843700137889279 -0.6418864556241761 1.3954243326235938
H 0.7105837666911402 0.2582397725781683 -1.3825936975029236
H -0.8798436344327673 1.0929501872859892 1.1359330204079643
H -0.9648141380054599 -1.5864500302101738 -0.4460155534839567
H -1.1074254537554098 -1.337897665793805 1.4111391788303242
H -3.053980278409425 0.13354909673357998 1.0493307311895237
H -3.328159023615821 -1.0083266518429848 -0.4181628073481811
H -2.4316483498585058 1.6606046927469074 -0.6444603376210366
H -1.7994147559646374 0.266215516998175 -1.7276933747133867
