17

C -2.841179046442325 1.3352123448398117 0.34542268974725937
C -2.414268092584462 0.13973896985434714 0.6335638142471066
C -1.7143708567326699 -0.9821159929530575 0.7051539117291475
C -0.9170385916379096 -1.4044790058179173 -0.45167751278684043
C 0.2667616567582788 -0.5225093562962431 -0.7221217091301144
C 1.165895034169627 -0.5089487064981764 0.42604008361920903
C 2.2493330090486294 0.22597572390314752 0.31158901008104023
C 3.308179594816627 0.9890102264959415 0.10339555816507705
H -3.7249658009697457 1.4635134290864418 -0.22519029131863724
H -2.2985661363740313 2.1963639837965236 0.6818225863023369
H -1.6011896789741775 -1.4750689843966462 -1.322169333872498
H -0.5447294840970711 -2.4458047346622105 -0.22230327549963677
H -0.1197566475953889 0.4735753630355605 -1.0110785479821944
H 0.7953027687826933 -0.9544133693379849 -1.6085680747257667
H 1.082814848589022 -1.0067851714682001 1.3551869101765908
H 3.1793919214637705 1.9951836433455792 0.39769494066795513
H 4.128385501778819 0.48155163707314425 -0.32763377618249195
