21

C 3.902086194343181 -0.49834468135138726 -0.03736598329346268
C 2.6993622183561827 -0.9411929450603709 -0.2741554819921051
C 1.4546360137482994 -1.3612220633248828 -0.4218889076274131
C 0.5340112977652567 -1.046152790252064 0.6581069127793336
C -0.17381993863544518 0.24849209864827612 0.46763002054506975
C 0.20432502291043667 1.2723125725896935 -0.2723932534262338
C -0.7673015251355283 2.342936517118582 -0.18716474228858396
C -1.743765982953059 1.9647432363832766 0.6120362010761877
C -1.4540292982222018 0.6087238709581542 1.0953477172494104
C -2.54414281639094 -0.30113698375532144 0.5804763293413046
C -2.4894080949896193 -1.6059037092931943 0.7875212403859102
H 4.085950718031729 0.4971978512369528 -0.3973928968485173
H 4.542795516524082 -1.1611978775781218 0.4738794794403248
H 1.2920671829293031 -1.8809188180365288 -1.3246835029314574
H 0.9610808391569216 -1.1519895638015412 1.6711350720733091
H 1.1355784404012934 1.2566097664684615 -0.8499036108404578
H -0.7092359694874756 3.3207794685189076 -0.7034718069287528
H -2.6243605887980497 2.5658604433092886 0.8704543645810001
H -3.3897109296978787 0.09693777724255928 0.033143067230227724
H -1.6355880718644202 -1.9966244823106427 1.3388380715848964
H -3.2805302279920054 -2.22990968771009 0.4089836658500783
