22

C 3.6632986172034245 0.40662479827008385 -0.747655764016353
C 2.838555907384205 -0.026924420718385685 0.1919063738075277
C 1.941245451679908 -0.3990210015396728 1.0722385624134854
C 0.5861817809379307 0.11983879468736817 0.8884840574528138
C -0.2307976064523925 0.12751123598229083 2.1128493914384707
C -1.4809661700712746 -0.13783829086581223 1.7518284200692948
C -1.5820839623189316 -0.3314923650041734 0.34917913876353057
C -2.735042998323817 -0.22741730889190676 -0.2228759737116439
C -3.677176953993202 0.03296731380938181 -1.1177251691559358
C -0.2237656747212275 -0.6218275519339794 -0.11671867271140808
C 0.03511253126662013 -0.22055358886703197 -1.5389228320221777
H 3.713466829729349 -0.21470660100196604 -1.5985345687021035
H 4.150500901032659 1.312579747755264 -0.5081181396236508
H 2.3166090190764086 -1.0415771584225062 1.8215339035755895
H 0.6600771971046729 1.170003581191696 0.5305428554617871
H 0.1053167496317455 0.31585112870587473 3.151159054505996
H -2.274615744016021 -0.18184101069686576 2.5195559484153556
H -3.814044284096135 0.9935919132135653 -1.5318676212659634
H -4.222978385816202 -0.8138442109476863 -1.3317854413969217
H -0.8576373163499643 0.3665816241767351 -1.887858052973314
H 0.2020524462147809 -1.104048308505661 -2.205797786471003
H 0.8866916648972871 0.4755416796033853 -1.58141768385341
