34

C -2.5301478841347858 2.5224173324113255 2.0303389608133835
C -2.7518069465190997 1.6015695131619843 1.123862080779646
C -2.9131501007813374 0.6267738016817911 0.27475907907083713
C -2.294987144772733 -0.6133877846539029 0.5736348013666703
C -0.8325553572478266 -0.7109140883004964 0.6948111990922845
C -0.13302453572324677 -0.8961240634442585 -0.5804555562018417
C 0.4040855230784272 -2.0748395645984874 -0.6932144211444655
C 0.9576191220166238 -3.256634056922127 -0.9191385852437852
C 0.009447146289514817 0.026029928521866384 -1.6425955681348636
C 1.001065993721588 0.9047483779821224 -1.627886340997335
C 2.107081867111479 1.6017502841165319 -1.4608497753038812
C 3.2969540804034345 1.0308861572425023 -2.0044817176942584
C 4.113982896686039 0.3555735817683591 -1.1786991226030323
C 3.8046923521960645 0.19804272143324037 0.25725989160294477
C 3.5989922120270146 1.4995180163190471 0.9638366956464187
C -3.0056308963518075 -1.6939932966564075 0.7477682259218308
C -4.495187997859197 -1.5949245198324393 0.6244223262031157
H -1.6647484651560938 3.116152539861406 1.868139062238466
H -3.2480645496121294 2.5562983537270028 2.8159340916896376
H -3.5139961264324846 0.8935813775308639 -0.5731329908956514
H 1.9569754526980214 -3.3090543823909653 -0.5923323558971978
H 0.32145154838198287 -3.9537178089344724 -1.3848876137177768
H -0.5805896482295863 0.15797893483417594 -2.529905678207114
H 1.9471126842170223 2.501820191541365 -0.9356032065973949
H 3.5335564303596727 1.1365197002420304 -3.0401484555011367
H 4.653710513850247 -0.35816748461442227 0.71014895392331
H 2.870373821459344 -0.40150012939649327 0.32115474903259467
H 4.1278906904614105 1.459788755586272 1.9334335985296065
H 2.51150425621693 1.6316054545177276 1.2285092989099302
H 3.9698915959689325 2.363739450482612 0.36435375087847943
H -2.5879389501237897 -2.668143541192426 0.9778464719583895
H -4.761779482545512 -1.1245188053015858 -0.36273309363909473
H -4.9738753675586915 -2.595739746967416 0.615915786020201
H -4.898904734096018 -0.9331351997557937 1.3999354581010985
