16

C 3.055429326706412 0.27403366568207277 -0.02939948612019284
C 1.917746374722181 -0.335387176915852 0.10376717784291621
C 0.6584781955671306 -0.7393374427487694 0.19620546462623872
C -0.3854393192364414 0.3004346934148057 0.0011067589537255965
C -0.7126527857823824 0.5395067790839667 -1.442612193398636
C -1.5873634572904332 -0.09318402948997682 0.7830332832060007
C -1.6498409868263542 -1.253903548210869 1.4162383510409262
H 3.5102311784093945 0.32076726312502973 -0.9940905802944874
H 3.529826856696041 0.725551443524922 0.8133888069968608
H -0.05626847717037005 1.2936609177856129 0.4222410635414971
H -0.4591887914049148 -0.31509629685305957 -2.1038606118347127
H -0.2596425017309115 1.4918682021557415 -1.8342704284972864
H -1.8224473561752477 0.7125404524339758 -1.5229945833760257
H -2.4599052111743718 0.5632932451510642 0.8610389932933032
H -2.486970374030854 -1.57709883477582 1.9863276412128785
H -0.7919926712789357 -1.9076493333627098 1.3438803428068709
