20

C 3.505101436385636 1.066579686003293 0.3601260551536358
C 3.0123953711282865 -0.14007892255059465 0.2867170394954683
C 2.430035190776977 -1.3166128289204757 0.2791693202380279
C 1.2487363753463925 -1.4622693126946609 1.0772938162974988
C 0.135284348873343 -0.8682988397702648 0.7195990500838235
C 0.0752465694905885 -0.053985664950696184 -0.487135252065224
C -1.009548019684801 0.5619159858982741 -0.8921458529746865
C -2.264894136646447 0.47346754606154523 -0.14470996011959392
C -2.9459272131466605 0.012039967525445274 0.888335849747661
C -3.683567487033786 0.8678251888815326 -0.05034888145269162
H 3.133682045813938 1.754605873325491 -0.3649893976532165
H 4.216707279573992 1.2157996334875567 1.1359027855872978
H 2.9223736987882507 -2.024414704747032 -0.33242986461752144
H 1.2968789932289702 -2.0678807501837846 1.9730122542653783
H -0.7463584908674795 -0.9858754124902429 1.3287474875921335
H 0.9802478531797021 0.05506113441681402 -1.0947393126661655
H -0.9705398845199448 1.158201635698741 -1.8162805091887355
H -3.055578189260959 -0.5646577884780842 1.8172715490431144
H -3.830467344434299 1.953860163672799 0.2015693350613444
H -4.449808396991953 0.3647174098142851 -0.6410161942269554
