47

C -6.078871333375245 2.57255904012263 -0.16717066611276932
C -6.193879616375622 1.3035550878648368 -0.3819194801536471
C -6.254713311457151 0.016109920159711265 -0.49040461637479005
C -7.4428966676353845 -0.6699634449840145 -0.10139918345513144
C -5.127754316818655 -0.6915247664572978 -0.9973193636153194
C -5.325191301899191 -1.5113996004119474 -2.2329008206155945
C -3.9305909969354222 -0.6600474048253658 -0.43685059561419237
C -2.9368504045671404 -0.6793271331216283 0.3669909163249995
C -1.7314255585504206 -0.8417948405265091 0.8489513063536611
C -0.7463090922493814 0.20710175554173862 0.8189988532660826
C 0.5690804583142591 0.06991209528482849 0.5770738064932153
C 1.471789422329771 -1.0364188115119999 0.2781321625872913
C 2.768102630865855 -0.8474157072547476 0.0823064054593968
C 3.6086712490998627 -1.9060681283252912 -0.1997959744836
C 4.959754276822969 -1.7526106406479736 -0.40962113929110044
C 5.783591844853587 -2.9367016351483892 -0.7053292600697358
C 7.074270090740366 -2.8404822444379993 -0.9123905082760215
C 5.465407710396481 -0.48639102538302936 -0.3294106768309431
C 4.665132052021103 0.6167417232024446 -0.048324520816828434
C 3.331620120464911 0.41870388268764874 0.15265409212803877
C 2.5576278084932564 1.505220109222928 0.42707384320944725
C 3.2132078025554747 2.8283394388491305 0.48923417779447215
C 4.485301506708687 3.0436742779983383 0.30098732870245726
C 5.379814825344343 1.9137234078665906 0.00034537871660544786
C 1.174604513158182 1.390009825935575 0.6473433839311936
C 0.18028127279619224 2.314339538833286 0.937976595108159
C -1.0080894469758905 1.6243987842070353 1.049668336319261
H -5.719033367261646 2.945786195005072 0.7354857266295838
H -6.363077108762708 3.209646556520337 -0.9399022385694604
H -7.8120707035414885 -1.2811759521372457 -0.978133439954581
H -8.313500295731473 -0.031639775504164504 0.16557372979752213
H -7.347936744776193 -1.3979726829394217 0.7297664125080717
H -4.331101167329093 -1.6846789356194285 -2.691608356694365
H -5.9579738686080965 -0.9393464811044612 -2.934674051879852
H -5.736535598386021 -2.507329439764493 -1.9754230508481485
H -1.4286127458537858 -1.798776085728845 1.2986182350152542
H 1.0345053819055818 -2.027847821897846 0.2223566629526436
H 3.1583675251641328 -2.8967949316669714 -0.2532485687008789
H 5.314362476375265 -3.9052998221175907 -0.7526453919599493
H 7.65372592183792 -3.74574930458909 -1.1298891233395865
H 7.649468393919348 -1.9291030879242126 -0.890636662659407
H 6.536726091409058 -0.3246892174736143 -0.4905278925140957
H 2.597511112051195 3.7139189791448786 0.7103268100710339
H 4.9011818722164175 4.071095111938192 0.36511908182467284
H 5.9526387211358305 2.0661802517156915 -0.9283816219794873
H 0.22857352645980716 3.3954017593060395 1.0717123641745776
H -1.9289049603498154 2.104131180096638 1.2694065657144695
