22

C 3.9716386413095957 0.8373107201509058 0.27145912573036357
C 2.954645730368126 0.36123958877041823 -0.39718398688419765
C 1.9158559034296923 -0.16308164710506468 -0.9998189158541624
C 1.1590277225922991 -1.1252129128256485 -0.24344489811950745
C -0.13308495486584107 -0.9250663873139094 -0.09376644030746661
C -0.9376361505222799 -1.9011906078599001 0.6813872627152182
C -0.8328467783696146 0.24463052402578617 -0.6702315593877333
C -2.27566939887121 -0.002848543670407238 -0.8622363169105414
C -2.9248391630515376 0.9137840546611917 -0.20151302143609395
C -1.9741639120326169 1.8053263900873497 0.45444527898730497
C -0.7395409907775179 1.434932954613967 0.1956422529406285
H 4.8726386937848885 0.29291934802547276 0.1568611760957988
H 3.7632195424534336 1.7040321439952462 0.8411618269689656
H 1.7541564332455741 0.18673657378734695 -1.9826518039288286
H 1.6397124558573972 -1.9769293594058897 0.18240877455045315
H -0.6048476985352939 -2.94497772236603 0.4592237122022773
H -2.0038929753182586 -1.7790201117430884 0.49076327185439145
H -0.7687643875521586 -1.751645099938592 1.7711974448749332
H -2.7247633497231014 -0.7825039288046663 -1.4326518456277069
H -4.0016692622684955 1.0053899093632963 -0.14400259329132917
H -2.27250677684177 2.6596400913675895 1.0728258578756134
H 0.16333067568688556 1.9065340221840321 0.5459980255430184
