25

C 6.10189402602611 -1.298479030114759 1.0285356052586738
C 4.9990192610259445 -0.6459735257729606 0.9183471245146176
C 3.9004398085411474 -0.06094706249842905 0.6055638804924457
C 2.7326852878520596 0.39268590224357225 0.2861896689469213
C 1.5678441814851334 0.7142479180168272 -0.20081668716475526
C 0.4582446025577013 -0.20291829685813859 -0.30260710356086024
C 0.7065871841105111 -1.6564949925440662 -0.4670080315084045
C -0.7756768139909346 0.2558240751428908 -0.2489586175779459
C -1.7880015117764432 1.3189250738454825 -0.12746091200860932
C -1.9826075681953375 2.6377148523336382 0.021609976257038793
C -3.3534183758502927 3.184458361291658 0.08540695689548232
C -2.238998907717424 0.0014539017645341917 -0.2754462668748766
C -3.2611432493339922 -0.8204628952345303 -0.3664831633175971
C -4.088794783525856 -1.8168272536755046 -0.41443637788713994
H 7.0253783001091135 -0.8426856780351617 0.695978417692246
H 6.175572990230457 -2.297717223718221 1.441011996071606
H 1.4321372890369877 1.7303074923414388 -0.5471793262953821
H 0.1456624605261587 -2.1892127283262774 0.3253339806326616
H 1.778171398616661 -1.8703047529842232 -0.2944439165296745
H 0.4652651748171536 -2.021989177797539 -1.4846881223391744
H -3.463062211134849 3.788767224530361 1.0298673169200865
H -4.071428796387632 2.3460173201144032 0.18183081588459923
H -3.6107036431258677 3.8001854034074967 -0.7950816058145673
H -4.417042151908812 -2.3138772191835066 0.4674754345135728
H -4.438023951987547 -2.1326976882890443 -1.3693217622193077
