22

C 3.4641202165953517 1.7358768113874852 0.34285710881168685
C 2.9159699246232833 0.6211748786169442 -0.049626363995027505
C 2.2754188478413253 -0.4468029922936745 -0.4620574293519954
C 0.8869648872953325 -0.2708365590491845 -0.8606302900504963
C -0.09660829768730864 -0.31884692045774 0.26062788087296274
C -0.02151596268853882 -1.6516583250735717 0.9609348238090617
C -1.4848279195878 -0.10739225017623241 -0.30642382093757337
C -2.52347368520406 -0.14307694228955298 0.761962643766857
C -3.3156915041873263 0.9223270873114807 0.9865766187798537
H 3.3731399510720133 1.9468740300854486 1.3853186663540962
H 3.9380551553139718 2.306695960589488 -0.4238169782232927
H 2.87181886948495 -1.3288020645286736 -0.45123792426708703
H 0.702010047264482 0.5970220995013646 -1.525731669885259
H 0.12913680908284053 0.45687896097585506 1.0385142651087669
H -0.5652663082555587 -1.6501067982704594 1.9308460386472728
H -0.42696223525720106 -2.4079797680425052 0.2580650019747621
H 1.0257946325478673 -1.9355961055973598 1.170390836427141
H -1.519114866338988 0.8896551651886988 -0.7970672464961635
H -1.701931036250936 -0.917247154546722 -1.0143627070006338
H -2.663537199965058 -1.017753522398416 1.3759849090474219
H -4.0683820902356675 0.895640392236115 1.7612733165212675
H -3.195118235462952 1.823954016831291 0.3776624364370951
