22

C -1.6263033690068773 1.8585566334405905 -0.09854256451679472
C -1.835377668782318 0.5595684389817821 0.0528345192269464
C -2.1119546475302986 -0.706606851364503 0.2015463025080495
C -3.4501825257064023 -1.138928463836875 -0.1635304709110274
C -1.0223271262645979 -1.4788262706126456 0.7129452645326583
C 0.22608838787627988 -1.2643955937991604 0.3702974926328399
C 0.6729815822233595 -0.2529288296333793 -0.541989255988396
C 1.613124614837609 0.5418545257717737 -0.10076526126502386
C 2.642529273703947 1.2080128544530535 0.3703877461415216
C 3.962457880954181 0.6485768151917904 0.12345645744213063
H -1.256723373417003 2.107523015869026 -1.0500442025984944
H -1.860965458982836 2.433790731470978 0.7504652260387453
H -3.691006245349241 -2.055793664132792 0.45109230151950663
H -3.567754984920158 -1.413922196939918 -1.2394824176903916
H -4.249759836831082 -0.4191116483773578 0.06253973877251119
H -1.2537360963657977 -2.2698830110615433 1.4111589962476467
H 1.015231292449224 -1.8991350832794653 0.8044451814253439
H 0.3592326146733417 -0.04453267808480313 -1.5321753651702414
H 2.3551191066948416 2.0939160953809726 0.8858259475502093
H 4.3780640655386 0.8881911138669999 -0.8733228902921643
H 4.69540209403123 1.0701355911911816 0.8674533885490159
H 4.005860420174197 -0.4660615244958376 0.3032825610202732
