16

C 0.9871139202815037 1.5582106705875949 2.5769663778878416
C 1.3335198543608937 0.4619804175162343 1.9648512429584033
C 1.6181940679125293 -0.5535602673702105 1.1706256122743852
C 1.7671184668720474 -0.2858989122639972 -0.24860031348770623
C 0.4730108470538716 -0.31821224127014563 -0.9039290665627372
C -0.6007621879313862 -0.3555018474065948 -1.4278299205072278
C -1.9127026938424336 -0.3811124712395272 -2.0856342870504743
C -3.0196620309717885 -0.5802566351778627 -1.390332542572032
H 1.7993373922945584 2.201238976733441 2.8199589836791934
H -0.057819331535943055 1.67274593065015 2.754482699367008
H 1.706282569997968 -1.4642883660234645 1.699215185850851
H 2.382288397657039 -1.0713839224906248 -0.7408283080702696
H 2.3236564618143687 0.6670918148825941 -0.4670087127764284
H -1.884556839261929 -0.2294160398042276 -3.1356174068322384
H -2.966998591644303 -0.7246164234921668 -0.3292585173277731
H -3.948020303160442 -0.5970206854527333 -1.906615491688681
