31

C -6.296471513019853 1.643242134461469 0.2638854153551906
C -5.041290787687053 1.3743347881162997 0.49468842402725316
C -3.8360780030294324 0.9658743921336401 0.7642628326428754
C -2.610291586961395 0.549392442545156 0.9147335374179644
C -2.2500554628273117 -0.8084451563232874 0.4974722579153041
C -0.8772168628377435 -0.8924044444312799 -0.07550559005403125
C -0.07247188561266611 0.12266382935802758 -0.19791863924927983
C 1.2860709119639284 0.03820024897725084 -0.7653003949656738
C 2.311029752249236 0.7166335030447554 0.13076943948326072
C 3.6480426259560947 0.6277124713847184 -0.43768270857666314
C 4.5588679271512165 1.425609285450394 0.061611444175731944
C 5.401222039122837 2.264015340824477 0.6278631729417538
C 1.7591670591294657 -1.3755291883909502 -1.0047448788649898
C 0.5665306979021646 -2.10661222592572 -1.6395168474777062
C -0.44196150908921383 -2.2402029226514224 -0.5212079460878705
H -6.925311044165481 2.1259792441571057 1.0010188582302193
H -6.762015836830965 1.39287690005351 -0.6795989866893062
H -1.8840828432254735 1.238729998309452 1.3535444239073655
H -2.9519328502280606 -1.1343309783258355 -0.29908748564007825
H -2.3706971198241003 -1.5393434829900072 1.3362915506370414
H 1.279610231014566 0.5407636337140468 -1.7612928948229296
H 2.2590179215770063 0.32034465878816604 1.1645756937338978
H 1.969470871120932 1.7895008124285103 0.2182182477061653
H 4.006578519569928 -0.00048795706570132114 -1.2142519621625398
H 5.912154688493838 1.870921068584718 1.4660072704511842
H 5.448544421563942 3.2142403158189596 0.16557429088901324
H 1.9691915636093236 -1.917370520338404 -0.05995448955276793
H 0.9455733939530735 -3.1086401545933406 -1.914134812815601
H 0.18012491109042278 -1.5279035036347302 -2.496313857003961
H -1.2973159673983214 -2.882827534668311 -0.801079456151716
H 0.11599573725622732 -2.6869369988097227 0.3510342794036772
