31

C 5.8029381858894 0.30534267613263544 1.245283005228762
C 5.089582162241048 -0.28905237437467046 0.30963643237924826
C 4.313283529492516 -0.9009290609772047 -0.5603354895757993
C 3.0954876701971505 -1.4389453744882645 -0.05363479454209441
C 2.3704276740805477 -0.6150170964046866 0.6825281355951742
C 1.6683035052823576 0.3038884085414615 1.3151475723085437
C 0.7745301668939433 1.1014232762121334 0.48469797531846487
C -0.6098538060526425 0.7062522755178123 0.6643542471313397
C -0.8113948519512569 -0.5898690716203507 0.6978645264171265
C -1.0270068211556425 -1.8916138762169485 0.6027785086443231
C -1.2690733511808239 -2.3809281060599066 -0.7108115691473389
C -2.266606961856359 -3.225310219872112 -0.8443544980138524
C -3.2825060280334726 -4.070748184766804 -0.8937194396054833
C -1.7874082704709175 1.4965202065696743 0.8079458642453723
C -2.0996230118417984 2.5284642961561525 0.04413831270455614
C -3.318893267749531 3.299667740190938 0.23877237011749503
C -3.6185140070722843 4.326884908398682 -0.5299559599442886
H 5.592155159912477 1.334036863054869 1.3676224667766166
H 6.485632113822459 -0.33113325887299566 1.7427060907762033
H 4.7041046013224435 -0.9132943784817406 -1.543826516777006
H 2.6554626760349818 -2.3914091506515955 -0.1598598501459888
H 1.8575450989070246 0.3326558650314479 2.351292648053747
H -0.9835837574269702 -2.3675651153364217 1.5358233753387778
H -0.761834455466858 -2.1673070985969782 -1.6134132887553168
H -3.012144586250944 -5.0814183592212965 -0.7480128802940803
H -4.216831826130542 -3.61245185443901 -1.0709658012591936
H -2.498382900465229 1.248491605948262 1.6021463738910078
H -1.3861955698016613 2.771957442859984 -0.7472689365952775
H -3.9832476051212273 3.015392515327994 1.0314988199615915
H -2.9482274099201957 4.614609163217795 -1.330700655157575
H -4.528124056103382 4.881405337205992 -0.3644760447607482
