22

C 5.5934811212538404 0.07946532758693342 0.256384346848816
C 4.5529229893599075 -0.6457671362189998 -0.132893393068935
C 3.4125408080117805 -1.0854787367837908 -0.6266790934648423
C 2.453281540830203 -0.18335017674456447 -1.1884019631584781
C 1.1943344527834638 -0.475332652183141 -0.9532192557879048
C -0.035380954253683664 -0.7775830830114467 -0.5768703234343263
C -0.4780078368862552 -0.1974855056433967 0.6825001266838546
C -1.9396799131577083 0.052823104796111055 0.6010473086450295
C -2.863123119062161 -0.459718163245 1.3769031313192286
C -4.174314567685746 0.048736962839844813 0.9536086856722253
C -4.013132591471891 0.8632693543552247 -0.0762239512363793
C -2.5697355917536355 0.9455725529623031 -0.40222353233548414
H 6.35300456237453 0.22029360035693166 -0.47457303458712147
H 5.541026147035751 0.4336105358945374 1.2539010604779786
H 2.5874194168442446 0.6885488500453498 -1.7657223625261833
H -0.5278743847187871 -1.410343727417989 -1.2585611184867678
H 0.016954589922230194 0.755448654006546 0.8889753665507125
H -0.23709577217972352 -0.9057388891395869 1.5001884726355756
H -2.7377131817927105 -1.1511278589929725 2.2102907178881055
H -5.1425090911211315 -0.18504775884476515 1.3925631641084928
H -4.798968700734077 1.389659227942704 -0.6033394621248711
H -2.187429923598342 1.9995455174393375 -0.31082973318968393
