23

C -5.770563670080128 0.6065276791335764 0.4697588398419442
C -4.757403748590402 0.012979321183611251 -0.14007782584545164
C -3.710126181025804 -0.5454612135408655 -0.6951210433100242
C -2.4518716051505884 -0.2822114597864179 -0.057890123854832734
C -1.5007445887965818 -1.200366935828281 -0.11403257647010767
C -0.17685070836242137 -1.052369751584359 0.49434511583643226
C 0.7536945574209291 -0.18786722773948522 -0.32858436297146737
C 2.068252353417427 -0.09030389677606258 0.3565883782030591
C 3.165282202915035 0.3085279988048346 -0.3058315069796568
C 4.434960189271154 0.39638936641812494 0.3807404494437178
C 5.507028386208955 0.7905208857112188 -0.2836516578337488
H -5.981173771396391 1.5770690141188861 0.11189896948217763
H -6.2201404346435 0.022202428140114566 1.226325990444939
H -3.923750485339107 -1.1270149690079438 -1.5527524059013647
H -2.2441941904478355 0.6264045801607924 0.46376710147792166
H -0.29906287214776395 -0.55924977109916 1.4896767196838108
H 0.29601847182968477 -2.041238921580499 0.6544643463777138
H 0.9091208560674772 -0.69782015219871 -1.3228172549120705
H 0.36486956700146417 0.8293191273276874 -0.4700403673960702
H 3.092766137639096 0.5649207721524743 -1.3615269253209241
H 4.4931448964872525 0.1407918828944934 1.4217898252980412
H 5.491091279033841 1.0526342101434831 -1.3157864077390478
H 6.459653358692383 0.8556170329525844 0.23469624702414696
