20

C -5.151387953744027 -0.18739399553552116 0.2296624579262832
C -3.9243157329616127 -0.03758372399699669 0.6669418562509478
C -2.6681133763464113 0.03142962871060838 1.0651083578377787
C -1.7988140329924904 -1.0007633574458836 0.5984647411518784
C -0.6089795093528877 -0.809110483188786 0.03952258901760443
C -0.14254389492798433 0.5781709750930851 -0.1143581000621273
C 1.2712956257961423 0.6793924909704889 -0.5036536725520273
C 2.1590456899963453 -0.280692159204288 -0.30540018182606715
C 3.538387418184974 -0.12043610180343357 -0.7117945862777607
C 4.433231170778428 -1.0662180792114904 -0.5214562686313818
H -5.778314447293233 -0.7697414177432055 0.8572436829531654
H -5.351375333048394 0.2926865809688246 -0.6921716825027355
H -2.466308997852754 0.8586440201240793 1.6899352767175468
H -0.06878656759212316 -1.685713621368502 -0.2621450766070731
H -0.3600002154294138 1.1446030530663958 0.8099843757800971
H 1.5925930434249824 1.5974388358277687 -0.9791969552119286
H 1.867630166765995 -1.2084040282649855 0.1670171201298614
H 3.84371621394526 0.7951273136324413 -1.182364675915487
H 4.148540987494124 -2.009748655233851 -0.04383513316863227
H 5.4644997451550275 -0.9875532282031757 -0.8075041250099616
