35

C -2.185083753617271 4.050397955216199 0.07606907939679827
C -2.4170370209579874 2.8077543133537852 -0.24724623995266135
C -2.568197722488672 1.53390651383921 -0.5231200924731692
C -1.5229462989290052 0.6312000976792824 -0.056692907880555955
C -2.0512378342754403 -0.5709321454053263 0.6314875442617442
C -1.4011687915216973 -1.7299782010638598 0.6683322527127289
C -1.7815415737715796 -2.8622570222669714 1.5222422623344265
C -0.20814005442736272 -1.791476632026122 -0.2629054898377871
C -0.700587140889744 -1.1340022828732759 -1.5296840818310347
C -0.5453446291253409 0.35473927970412034 -1.1468797407149096
C 0.8697099157312133 0.295021945838596 -0.6480554316152025
C 1.26739200966075 1.3745192751733877 0.3188997761788717
C 2.498846125711608 0.6383275044195597 0.9092994216111714
C 3.4594286287217053 0.5246364701940671 -0.22594528507265094
C 4.398098470624515 -0.4257227271064518 -0.1773543257571217
C 1.827634112204046 -0.696350072183629 1.1470299646161046
C 0.8818978793338574 -0.9029002902470249 0.2722953553330457
H -2.577132926350256 4.353667894499281 1.0066083688844545
H -1.6267059806038455 4.59802400363671 -0.6450769943572074
H -3.4517251516585437 1.3111728314021143 -1.0636870679960506
H -3.0114534834960294 -0.5075326508150095 1.1292486749100454
H -2.384382803487551 -3.6261088471204026 0.9913451884979976
H -0.8833747070216197 -3.4138451002486074 1.9157307305644335
H -2.3621755208018884 -2.481451638423557 2.3903821980028948
H 0.1898186867322747 -2.7917784685560036 -0.38198766910698584
H -1.775924666513063 -1.2924886807065508 -1.671936210992467
H -0.08663160923521955 -1.3629430249320071 -2.4120232030482085
H -0.6762000700916807 0.9363111820414826 -2.0594950598962396
H 1.6196926021289297 0.23295652106002937 -1.4248549603024427
H 1.5686916802493847 2.3134300856220946 -0.14158271579125015
H 0.4927171592842647 1.4873183986025256 1.1181316822392469
H 3.432781505453116 1.177766157390323 -1.0912302937862852
H 5.115149785162556 -0.5440434000336632 -0.9786358552584903
H 4.487275843851049 -1.112929607439576 0.6508626764356125
H 2.107857334414765 -1.3744096382250508 1.9404284496911965
