30

C -3.2382496199796917 4.228786462169902 3.178570199540048
C -2.2687264616225504 3.347037099373803 3.1452084387996395
C -1.1735043629180737 2.6382358635879277 2.899941380123867
C -0.19273579186378503 3.024964512444168 1.9946241743547732
C -0.13329821721742618 2.2256523478844223 0.9674355383378147
C 0.23239128682270804 1.4032987184406833 0.0316393811409306
C -0.47827613253288276 1.5855462321029379 -1.162589640878259
C -0.3090695867270484 0.905693719264853 -2.278150155895736
C 1.232546577476732 0.3626659011509513 0.18094907746948036
C 0.7083484482810454 -1.0227003783459243 0.2023156748402158
C 1.0286286319385276 -1.983430915241001 -0.636671837368778
C 0.44598243388422903 -3.3142443005514 -0.5177899762494784
C 0.7478503918524523 -4.295917363672916 -1.3436770103004059
C 1.7042302086296879 -4.139067343518231 -2.4667772612625867
H -4.023885548297089 4.050768249370092 2.4923066033561203
H -3.0996912940693857 5.001690103006356 3.8905247879684453
H -1.2071224324808298 1.734180836420121 3.527425185995874
H 0.4349537846867786 3.8635370967813594 2.119277207167959
H -1.2846274696568047 2.3632829194008007 -1.261386811100913
H 0.42536100982889957 0.13525302967453334 -2.3277116736334484
H -0.9114081817984901 1.128059552487723 -3.1399554867849644
H 1.7300672245727051 0.5124751846570891 1.1884286477473167
H 2.033758767436805 0.41000049112623815 -0.6077862545698086
H -0.01255788626741604 -1.2386039615128894 1.0044539216750923
H 1.7314499644207166 -1.8058098334942962 -1.4335422029547142
H -0.27033457836333724 -3.5191401200576187 0.28277936578403534
H 0.29274559025622626 -5.279163402837924 -1.2238218328082655
H 1.5859551801339564 -4.960947536553764 -3.2066356367682567
H 1.5390833508019484 -3.1955692625940255 -2.997340275986095
H 2.7301347122698782 -4.1665339006788455 -2.0161026081405935
