24

C 4.971366213512419 0.038061947298685984 0.5691214978548703
C 3.840927738564151 -0.43843765922208167 0.9950290743660468
C 2.625294392241099 -0.8695815321156971 1.2841607096752827
C 1.5613846636670154 -0.5358819110952117 0.3974134686021875
C 0.30862941899392565 -0.3198012166628294 0.7718292399272666
C -0.7258460729341617 0.017744398259307768 -0.19447727219918587
C -1.9841705061563233 0.23918263829607286 0.14550813403956514
C -3.0914553651278927 0.581567634418499 -0.7372395685838654
C -4.170817652248325 0.7170558951437174 -0.009450634467463925
C -3.8063021867714024 0.4674469673536579 1.3778456909356096
C -2.53131997996614 0.18412922206964472 1.5056768309625153
C -0.3226663701291386 0.10733641335505952 -1.5898349520360737
C 0.9699705534091104 0.10653414576799305 -1.8826369062444424
C 1.8381014439860581 -0.41645248872058266 -1.0323855086403804
H 5.208056334830135 1.0204952792499657 0.9216340131005893
H 5.531377082694037 -0.5980499302389176 -0.07969475972909824
H 2.6077404148826027 -1.4340086183711456 2.1831567237526386
H 0.0861262712236487 -0.4042546913040046 1.822836183138067
H -3.0337044984627397 0.7034766808824553 -1.810888402401489
H -5.187944234626597 0.9721885165141226 -0.34466810360112965
H -4.512043441152488 0.5114325629160781 2.210999643160418
H -1.9249542861298783 -0.05052990428150102 2.366934673063346
H -1.0481198602015365 0.1737864055480876 -2.3847931141685037
H 2.79036992590246 -0.7734407550613691 -1.3893261430408175
