21

C 3.7461495898335166 -0.8992180029512267 0.14173687976134539
C 2.4808431070210717 -0.6604435883031531 0.0035562045794905687
C 1.193923831421691 -0.5967757447383089 -0.06312545236959234
C 0.2243820520303488 -1.6363487818261075 -0.2616048506695479
C -0.9994201280157162 -1.1171206009697847 -0.2627051245795438
C -2.4368493480811355 -1.404072336079905 -0.38615987579219235
C -3.106446154629182 -0.2725639787404793 -0.2713055706071649
C -2.2307267063660405 0.8782790783919361 -0.06312624247943556
C -0.8544103918722432 0.31918869736312966 -0.05851379857819234
C 0.45327722507155904 0.6214707284685792 0.05943119147386269
C 1.0016786625530327 1.9814588831045625 0.2769809715895613
H 4.16006451925447 -1.10428145757134 1.0767528612547046
H 4.320334011132957 -0.8756589111816173 -0.727817401857144
H 0.40752558616237733 -2.7148728715526325 -0.3977652485287303
H -2.8239477464621805 -2.4072193247049225 -0.545539723143193
H -4.184983837850778 -0.21433262264675676 -0.3266637852638774
H -2.3295457210162933 1.6533495461214696 -0.8691183650602553
H -2.394938534339595 1.4135073433087033 0.8908097775256733
H 2.006945712187501 1.9451415522755862 0.706815752965315
H 1.0880663786622453 2.531704868569927 -0.6975847161740595
H 0.2780778933021413 2.5588075236621517 0.9124959499382801
