16

C 3.9154164510292375 0.22306420804743446 -0.1343542491325132
C 2.6710025065190015 -0.13112524556237884 -0.2905727817498126
C 1.4193396446407125 -0.46939757244471075 -0.32281998688110325
C 0.21763019873052916 -0.9836335933397375 -0.21601823995032668
C -0.6342522101822303 -0.6020456962674319 0.9399907176049779
C -1.4828719198188758 0.6027776531149742 0.6464129461870329
C -2.4244738447633356 0.364029292856208 -0.5361440432886446
H 4.529802635561847 0.3539306610905774 -1.0131471575601307
H 4.3065893917527065 0.37871310297564625 0.8781628479641077
H -0.189075741414944 -1.6796653883176815 -0.9356538063502647
H -1.2786046131679043 -1.4047994453871704 1.2946893117148988
H -2.1030033104981043 0.8016474107924654 1.5446058476282185
H -0.8752211340970271 1.518396859254434 0.45396496648717816
H -3.1725131690641906 1.2054445990069986 -0.4783181871274023
H -1.8968709952619545 0.3768180099610708 -1.4882016744137623
H -3.002893889965472 -0.5541548557806961 -0.34259651113244827
