18

C -4.26427658376724 0.6125552359689269 -0.46127282469154757
C -2.967863286455877 0.36604289705932597 -0.541969041457238
C -1.6862045160939296 0.11216273462084278 -0.5465336618257943
C -1.0994558432064045 -0.2471948345876373 0.7447257716418081
C 0.1417284871800607 -1.0658584203026065 0.6084444617940192
C 1.1926630834112857 -0.35719329497406055 -0.1418023739506899
C 2.4509482223579933 -0.25275022311027334 0.30839804664759607
C 3.4462986697374443 0.4830479040936009 -0.5192718348234625
H -4.873916617673303 -0.23417623010006586 -0.6087487307382499
H -4.503520820999167 1.617916200859433 -0.2607170343562375
H -1.2207034642359942 0.19767854966438206 -1.4936094830004882
H -0.876873186688076 0.632972888751496 1.3763402459721297
H 0.5408471992606264 -1.2614952959929095 1.641992706934971
H -0.13930478254309123 -2.0382420590559946 0.14274770638452508
H 2.7479461799154383 -0.6917055320493788 1.2548871705821534
H 2.973315923206286 1.3898530739304222 -0.9760859779367264
H 4.277008803982067 0.8888303505592517 0.12565019516009565
H 3.861362532612759 -0.15244394532701827 -1.340562440604189
