41

C -7.953431091201626 -0.4475012704006749 3.566287058698574
C -6.867489902863154 -0.5058446765567942 2.861892956354572
C -5.7597395629062325 -0.2783274830607815 2.2488433610474217
C -4.701665702665873 -0.4045374858926519 1.5311686864558425
C -3.659447865352887 -0.19373029399732067 0.7683220741654463
C -2.403740930147028 0.1755833190348322 1.4021511916899694
C -1.2744769882746587 0.4203085487981203 0.798454508141709
C -0.9726452288046978 0.39154744921379764 -0.6274118786403188
C 0.4328382616280612 0.9162368877336012 -0.9227836023530849
C 0.6959493247984481 0.8693212254452348 -2.3763274157414256
C 1.6556484830849079 -0.006991798641146795 -2.580407739294841
C 2.103720576431215 -0.6008824063164497 -1.3400647000442354
C 3.1587026787183934 -1.6257415547901386 -1.1200281804648335
C 4.475976152757823 -1.198256629288207 -1.578480673307477
C 5.419701492461556 -1.039008647386416 -0.6629709772148776
C 6.233155037916818 -0.5809153753592933 0.25557338042575245
C 6.031809589376164 0.7266097236236876 0.8010834356646978
C 7.035484777573871 1.2371094563417604 1.4726828162684935
C 8.093485974901999 1.6758503488973426 2.1324805417179666
C 1.3910533262935076 -0.06359853386563173 -0.36826737586587166
C -3.761322026942658 -0.32478353200313 -0.6444301964311842
C -4.583419990583475 0.4870155147329211 -1.255913121050786
C -5.430507336713353 1.3414338529802798 -1.7874779814154953
H -7.94494459504989 -0.2772627540580844 4.626750501109778
H -8.89477772164849 -0.5716069346254217 3.0860158438562144
H -2.351371619355247 0.2714439251369841 2.509135218865281
H -0.9240348168260681 -0.6943904179077086 -0.9333612494256679
H -1.7241041737350724 0.9112791168519158 -1.2218536925203043
H 0.5723919791763586 1.932522575448462 -0.4973800612470952
H 0.17252719632037344 1.4660643259319808 -3.1238659653537564
H 2.0596057800162804 -0.2541479839916959 -3.546063505191758
H 2.8846692466038917 -2.540187282766333 -1.725009250220183
H 3.1545459372083293 -1.9449619355900558 -0.08251366360539475
H 4.757308826495792 -0.9976989321037604 -2.578698158546285
H 5.183828107072665 1.3557318436324657 0.7453008313686456
H 8.783638797052244 2.210658879947664 1.5372974493415639
H 8.097117952221096 1.4282466514430772 3.158982385486189
H 1.5056606524738188 -0.3198981443437755 0.7042234755535427
H -3.26167271282715 -0.9993580701652883 -1.3021605910658185
H -6.427441546928547 0.9911481510770105 -1.8547534995625121
H -5.002586337756232 2.2659226280013254 -2.0764222376484684
