22

C -1.7685430090835759 -2.0964911310540177 -1.20909881422252
C -1.8645066978042606 -1.2892337699523535 -0.1880470411705464
C -1.662239241597641 -0.310036751371751 0.6796599082727146
C -1.0084043524577802 0.9175603845121217 0.2104463367432881
C -1.7751841816039475 1.885392471303908 -0.20540813202223623
C -3.2585207717331355 1.7962369535783231 -0.2227626993106352
C 0.43546125142183684 1.05263894044933 0.20796340499946964
C 1.1895566402351931 0.03024635096488554 0.645270606266981
C 2.659016798980297 0.1220510209071297 0.6610776948483406
C 3.2971754996009723 -0.942894547041952 -0.19629016031865526
H -2.4478692348614417 -2.0661481416767593 -2.040984343659121
H -0.976318945945928 -2.8208085205778857 -1.222732765032223
H -3.6166103396427083 1.0441519822524128 0.513462796370645
H -3.524356082867684 1.3912856133402434 -1.2386619141146415
H -3.6996493528527727 2.793332070271 -0.07271122431602894
H 0.8845367731515869 1.9653443522704537 -0.14221792409692585
H 0.7253982534468122 -0.8704724130931902 0.9900972418884633
H 2.9881548574264514 1.1102306614416306 0.2565156913597926
H 3.0120975895601108 0.009287650428214134 1.7178265085511897
H 4.137593778858181 -0.5418587429231907 -0.7838632081481376
H 2.5305397881462 -1.452622650067367 -0.8073563233996083
H 3.742670979623131 -1.7271917839612503 0.4742896820364988
