42

C 7.7368694607049955 1.1459854045115108 -0.9086353980280031
C 6.453697050099862 1.0036184137981887 -0.691530921457863
C 5.1745918486663225 0.7718940756992668 -0.5066140695749387
C 4.691952917646133 -0.5556783969024788 -0.8767274406267511
C 3.168014448465694 -0.6045086666403375 -1.0345205815361669
C 2.578691429443529 -0.22937146584953594 0.2397253540060575
C 3.0673914118816135 -0.40396044049282726 1.5891785879832507
C 1.4083900085674235 0.3637166970446663 0.14594662172883127
C 0.17841945097171696 0.8316317607479842 0.062284051852705906
C -0.8579607489384015 -0.14522176358320865 0.09287068589518585
C -0.747349406795172 -1.191902487261734 0.9197841814257472
C -1.6970265796243922 -2.3353095779736757 1.1271010303092206
C -3.0540569580671875 -1.7884627045424382 1.3038403511846643
C -3.537813259610421 -1.8680237445210979 2.52397780320438
C -3.9226449840695223 -1.1719363689093034 0.2937827127604796
C -3.234761654306665 -0.3463124072852123 -0.7006119427163925
C -4.068974579916115 0.09203445961380892 -1.7921392001022005
C -4.318432946755907 1.364537084911052 -1.9357396766937023
C -4.831230809149459 2.584383744832277 -1.8405868949079291
C -5.9933190094374496 2.803059875871001 -0.9081786998585587
C -1.9791213718567067 0.09056987139973165 -0.808712455081497
H 7.984268900418822 1.5085878297630544 -1.8707857082482042
H 8.355202138674132 0.8788104475261885 -0.0939023646239343
H 4.6398335905718575 1.5885262124305126 -0.10527065136650283
H 5.12841222379717 -0.8671177938569493 -1.844562764184002
H 4.98649745758839 -1.2759534929596756 -0.06961575279961336
H 2.918971261597595 0.08486059198056446 -1.8430356024815178
H 3.7961950648602083 -1.2666296846141463 1.5867864549297912
H 3.7118318796054486 0.4844770253318421 1.845317932655629
H 2.334710149883492 -0.6294555219272601 2.359532227431492
H 0.16551314367508885 1.8777248877228385 -0.015439475830602924
H 0.16336450579999098 -1.1737719191981428 1.4988585344638197
H -1.6969897182911575 -3.0137468830275473 0.2402582829495287
H -1.356137721748482 -2.8504155166607403 2.0415969266704437
H -4.527481838812699 -1.5062692385647618 2.8090904016224583
H -2.9611666655668976 -2.3130408867701697 3.345212678638584
H -4.73373873221584 -0.5604501986151308 0.7779288092602246
H -4.501866450183049 -0.5863103340556612 -2.4969972459370875
H -6.582428495206319 3.68101765335789 -1.2069345985743
H -6.6914369783779 1.9271839438502143 -0.9797565723018412
H -5.586294762614553 2.899420212136684 0.11704218174074164
H -1.7625846713731284 0.7018093016834209 -1.6814342254914063
