14

C -2.6896081306339608 0.8485958009459612 0.5173409623591317
C -2.090930937752562 -0.20703152474752062 0.04711327569597946
C -1.4719593466931598 -1.2230868138843427 -0.5071198752379271
C -0.5574844571277278 -0.8954184924391511 -1.583714411105827
C 0.49323009094133846 -0.16056080158219338 -1.2871376322416546
C 1.4224348815219805 0.5967506755759757 -0.7206822640818034
C 2.5423506255642847 -0.11179498480701278 -0.09492738021157425
H -2.1807184868122893 1.3196191757535616 1.3279063057666853
H -3.607835757251802 1.1190754472436464 0.04392334785751881
H -1.7143572117062946 -2.158393659564674 -0.1021989243999602
H 1.2945215727345423 1.6640841613817527 -0.754208131392988
H 2.26032009480187 -1.0655526342607196 0.3825672891625412
H 3.008059704995679 0.5909293209266615 0.6568541046577901
H 3.2919773574181606 -0.3172156705419493 -0.9160782185731169
