26

C -5.2256936032227745 1.8613373168932688 -0.049190266750833045
C -4.272339533041319 1.068048496068036 0.3476267914213473
C -3.200403184303558 0.40336369022707463 0.627206884774537
C -2.2237817975917684 -0.4044203564544942 0.8443907502322501
C -0.9184035760719939 -0.2418394496648093 0.22076251843447997
C -0.0849608350073297 -1.2502405549286963 0.05722149863490982
C -0.4114578525670764 -2.629559439462703 0.4955987073276192
C 0.5939259689869316 -3.442758553013918 0.21326926017994854
C 1.7200674420247433 -2.7044489453346316 -0.45088562761074746
C 1.2107387679413628 -1.3511260801640954 -0.5064501737055646
C 1.8417217208652303 -0.34188109215112517 -1.0012358334474163
C 2.5679878192604235 0.6789867434411989 -1.4293851906008768
C 3.381141046523137 1.323298762879893 -0.4145418103774401
C 2.769215493316425 2.51003277081754 0.24653769753370078
H -5.304113997548907 2.8655310925928714 0.3427305236834987
H -5.975635299539668 1.5749464771404669 -0.7730013787120575
H -2.379542495657734 -1.2374618580896635 1.517366595804609
H -0.6432776548454519 0.7529240084036416 -0.11329093560854804
H -1.3393497739416422 -2.930765275519714 0.9780265477267539
H 0.658082837525433 -4.511257787099657 0.4097396260706947
H 2.5987223198617224 -2.8185494667128634 0.2448690063963275
H 2.437691092975118 0.8635214203061068 -2.454521299770551
H 4.416726196301802 1.5374812685566557 -0.7435361125877022
H 2.7506472295621296 2.3240738523273667 1.3574852125961114
H 1.6866826832431518 2.6501218974315712 -0.042117312294513015
H 3.3456089849513115 3.450641061510114 0.0753243206494714
