18

C -3.943014714773766 0.9934447310476636 0.17935383450269476
C -3.043940097144862 0.14523871837818794 -0.2683248507005566
C -2.082382191522281 -0.6401000919772919 -0.6804899607277729
C -0.7165180238850195 -0.1816696608917556 -0.4355620442610116
C 0.2652866055351342 -1.2849506986056283 -0.48760329127679375
C 1.3806651947309412 -1.2575931383797672 0.21591380073854124
C 1.7487637412496295 -0.17169977291258537 1.0893276320603018
C 2.709416372480909 0.6028055114838496 0.6568607967901459
C 3.6846072759460853 1.3446026279746026 0.1579629838646366
H -4.243278934747366 1.7301534258674285 -0.524119713105742
H -4.24742322877719 0.8308879062776544 1.179951241263937
H -2.4160319401188457 -1.5253124795970951 -1.1482743961715207
H -0.5918914665246662 0.3613736764111485 0.5227117353685755
H 0.057471694853307595 -2.1290379623483897 -1.1182935974964752
H 2.0743401018035845 -2.08527687216186 0.15046482310237783
H 1.3548888671721273 0.09200053957766627 2.032019382369307
H 3.3543830030283344 2.15339955478402 -0.43603290408329115
H 4.654657740694787 1.0217339850712062 0.4242970680177957
