25

C -2.759768749056115 -3.234569350113986 -0.3982232530599491
C -2.223320886084587 -2.079516817629798 -0.13865553989649038
C -1.7199444566422593 -0.9021083718917453 -0.06169641672441941
C -1.0254443613710682 0.20822093424200228 -0.0639799252857552
C -1.1197359580271404 1.180083968321938 -1.1127269791289731
C -1.2110457672255133 2.014603440288245 -1.9871909702731778
C -1.3312272192597168 3.029774016485388 -3.0211942611068356
C -0.11663517891452191 0.48310289777486737 1.0298071827893391
C 0.6177110866089736 1.7543252927158728 1.217576057982704
C 0.09668679242513999 -0.4565263611256445 1.938751421704905
C 0.6437743343147845 -1.5074461022068737 2.529933741947833
C 1.7034370273848503 -2.2522204225211384 1.9347973099723654
C 2.6893003611526582 -1.58631970923172 1.3765730723253624
C 3.5878998569132223 -0.8144983284960642 0.8498520863830807
H -2.6008714987142745 -3.736538450679788 -1.3541847304599632
H -3.379832587021048 -3.7391103888789106 0.31712311567452944
H -1.6651466389589769 2.551823991147584 -3.9709615607298776
H -1.9881772340274035 3.852511222477326 -2.704864536835674
H -0.32578812371423355 3.467713798910629 -3.250453925610317
H 0.7736172404881535 2.238938899476194 0.21221605961279827
H 1.6468222755730548 1.513738712114813 1.5695857792281735
H 0.05085898143606484 2.396232759906071 1.897273058596161
H 1.8336792409215472 -3.3093778998601593 1.866060163581857
H 3.4345983536192213 -0.5424773966782447 -0.1713455891487276
H 4.388553108165997 -0.5303603344893436 1.495928638474266
