18

C -2.849363506266206 1.3188609386788392 -0.4978692433860087
C -2.705354879009684 0.013199767502939599 -0.5801934928888179
C -2.5005090641343948 -1.2689064770407763 -0.6152352277998026
C -1.5234930775820592 -1.795910596376213 0.35516888318597256
C -0.39364598165366876 -0.83354807011786 0.3939268923683888
C 0.8165649516429067 -1.103241686767051 -0.02077466627218549
C 1.8171565989955236 -0.08927942264765379 0.07028287256608869
C 2.6717646076808723 0.7673198598432857 0.1468706125059325
C 3.721654231342523 1.7986641726840205 0.23992263624591884
H -3.6073845554317727 1.6335680259697385 0.1740691931859543
H -2.1922603698765992 1.8837357823681853 -1.109596909544498
H -3.065072182994384 -1.7975123660971601 -1.3455743726310534
H -1.1948244175621388 -2.8114068050920085 0.052997342420374884
H -2.030762626519197 -1.864721630053681 1.3400657682123869
H 1.0253108036469931 -2.0779933734168687 -0.4179418496453617
H 4.660952061383434 1.3844206980954115 0.6709697905906635
H 3.95417145738724 2.2241383287957417 -0.7353084184040602
H 3.3950959489506047 2.618612853671067 0.9056451534381441
