17

C 4.0384473024265155 -0.03366949528840957 -0.09043744849149447
C 2.9336064659990897 -0.6537415999791426 0.2754641427751932
C 1.7669804617057743 -0.9535532043694928 0.8197266808090415
C 0.6646817025217797 0.004699499553201401 0.570478558666765
C -0.6901549730865792 -0.6256902854288273 0.700573896774787
C -1.7188171767627118 0.46600680056858623 0.4202027092432931
C -3.121051383406312 -0.05574351810914965 0.5233717725719137
H 4.652226502663126 0.528894691947853 0.5867295978923498
H 4.314672475278283 -0.10522972876793502 -1.1114698571387136
H 0.76113547122856 0.33465048980763584 -0.5048177491226783
H 0.6970518874033352 0.8724688633097273 1.2563498502698542
H -0.7695253768902683 -1.451570152273451 -0.009799326318512248
H -1.5701001433660957 0.8868414069919766 -0.5800294577567916
H -1.546165235574643 1.276008454103803 1.1736684132842523
H -3.356974942314949 -0.6258813048276474 -0.4112367212290025
H -3.800505824170988 0.8286190871318286 0.5058301692679159
H -3.2555072136540306 -0.6931100043705507 1.4025831604175472
