19

C 3.923032912746595 0.005309007614580042 0.658592297362695
C 2.8232800388311836 0.7275877420372322 0.5494864626640067
C 1.6826911387297 1.3681365896188842 0.4264075038381231
C 0.5282250022325955 0.5647004467673945 0.1713879884851116
C -0.362667787974991 0.3837580255744061 1.113476831885663
C -1.590562330135567 -0.4359268179650592 0.9326033559181853
C -1.259867068860123 -1.534539857162363 0.01447378922051176
C -1.9523662391428895 -1.3616756378964312 -1.0914252048890107
C -2.7697585316064277 -0.16451571497551543 -0.9831942959350449
C -2.566463067878791 0.3857718776878223 0.1969612370079693
H 4.13374046037398 -0.31763062685036725 1.6440355984071477
H 4.434648159142919 -0.14739981714267641 -0.2532896489319873
H 1.766171700777963 2.418458300082544 0.5339988681251682
H 0.38555106520752236 0.10575270709742138 -0.7930910276873779
H -0.20893479272691617 0.8473545804983674 2.0724735162366996
H -0.5643791609247447 -2.366009203322532 0.18881505224354267
H -1.9073215795121392 -2.029255859755053 -1.9536452226928394
H -3.453682336971432 0.23987819598024987 -1.742826980075976
H -3.0413375823083006 1.3102460621110956 0.5858358868160691
