24

C -3.2785686813141077 -2.6597847860215347 0.8834355995811177
C -2.3286293160515976 -2.5400945618630177 -0.014595321799122539
C -1.3871011516114118 -2.0585472421338875 -0.7817821156175496
C -1.0637195494508507 -0.5968616873862356 -0.7962395739708966
C -1.0227371570101298 -0.13320751067293213 0.5825362030458808
C -1.3325671517322435 1.127281967116147 0.7891277026991731
C -1.6582195671482551 2.4021171099780503 0.8949432318943439
C 0.2329578381494031 -0.449212100883939 -1.4776502379489025
C 1.2548318683365098 0.05365617951604404 -0.8355464527850256
C 2.5642885243540983 0.21061406188468776 -1.4997061137504475
C 3.5638722611014586 0.7164197801025793 -0.8292036965545915
C 3.4564440247060255 1.1527014350629925 0.5954823432411318
H -2.988074574317247 -2.8648968329092455 1.8955479523898433
H -4.289915985656895 -2.547555996979024 0.5760021630737592
H -1.8759902631917527 -0.05501980356584795 -1.3559651909675452
H -0.7774668979929114 -0.6619766017311715 1.4653022655191765
H -2.690596090688797 2.574875275648657 1.039239496009996
H -0.8400315478897336 3.065959367972037 0.8193538398724463
H 0.3367728900675792 -0.7535616912283369 -2.4966918347035048
H 1.144803089533138 0.3590688619346474 0.19215250837445627
H 2.715539071698872 -0.07810921090997834 -2.512498381016368
H 4.459477817962838 1.2765103279946681 1.0341237416021167
H 2.9305409422382636 0.36378802549619677 1.1781990752600953
H 2.8740896059079595 2.0958356335784205 0.6544327965505179
