29

C 2.415544532568747 2.4408124409424614 0.9887319034417077
C 2.2254342328331407 1.2426967485647447 0.4902559342700484
C 2.1144162991131967 0.05359515820054003 0.013222089079173651
C 2.9194055597145474 -1.0876131547950574 0.36846985131496846
C 2.2837867456731957 -2.225866513845095 -0.3389595587216495
C 1.2933063855357232 -1.766250098088168 -1.0805029702521338
C 1.1259466390643513 -0.3021347929321814 -0.9815713616539793
C -0.2678911686855188 0.07737035325689616 -0.6101193120288656
C -1.15273174478163 -0.6359601017562287 0.06114427252503504
C -1.4745953397947456 -1.9095386577786655 0.7357866354764424
C -2.575207995534802 -1.708803207463339 1.4002662723027677
C -3.0467913152322663 -0.36046214770590285 1.237536446651323
C -2.1939881247526922 0.3049898306406679 0.4371869808378761
C -1.7893120840713395 1.5873283307164212 -0.05157940419984625
C -1.6795201969451172 2.318991137366254 -1.2100048271382118
C -0.9992557899339412 1.12005655856849 -1.2821023584419455
H 3.097514012657926 3.050597589995817 0.45528725759540223
H 1.8532375052804693 2.6292978284052198 1.8636349809659793
H 4.000833992876801 -0.994236481553788 0.11232027227404559
H 2.8944239147448805 -1.3513927660570257 1.4511054922768183
H 2.5799408800743238 -3.2959197373659066 -0.26791558945587857
H 0.6410544218929457 -2.382300437068762 -1.717392937741208
H -0.8437890444192008 -2.7904714519149567 0.6315919546942916
H -3.0749984767466434 -2.4500294991038545 1.9952495387746403
H -3.915507932019677 0.08963089307103374 1.6550235374313607
H -1.1303638639437912 2.066001211457383 0.7947048298059076
H -2.6394274641481545 2.5502986859049197 -1.7638908840750473
H -1.065627365891143 3.2699740364770484 -1.2645223867945148
H -1.595837215129426 0.4593382438606744 -2.06871092923457
