24

C 5.277896220015966 1.4298987354813775 0.0836026369988359
C 4.011924079433417 1.0940877862631035 0.13122326598086065
C 2.784747380699673 0.7068900135486311 0.28705935433631113
C 1.6847672551146944 0.027898022969068344 0.5661766519777854
C 1.315700965675297 -1.1228215440309954 -0.2522584222813914
C 2.019636507780515 -2.388351752630722 0.08944366301762471
C -0.14043050984049313 -1.2738058994478492 -0.45077250377938227
C -1.0200630378007962 -0.4635085876706981 0.06897630244544913
C -1.891013538795092 0.24994235006904614 0.684411593338572
C -2.59198427106737 1.0147529529936377 1.4435692395216666
C -4.0312393826466915 1.2111082949087282 1.1332154782410966
C -4.1903814125844 1.2780230148650478 -0.34353759865176176
C -5.231143849108351 0.6821121343263759 -0.8970046390276086
H 5.566475231485214 2.4132893480892323 0.41372732440611976
H 5.998034975301155 0.7111524706322521 -0.2855726362558655
H 1.1202779848109632 0.40071851796068586 1.4222140763301958
H 1.509740630862632 -3.040872871862191 0.7974422997017947
H 2.174357447070696 -2.9527871348893324 -0.874543899858564
H 3.029705026906451 -2.12760736129445 0.47306484401350624
H -0.4661230609664034 -2.105664730799504 -1.0614749493858133
H -2.2065276854295353 1.5383861010636215 2.3105355836721757
H -3.454253207249639 1.8129913611359985 -0.9516890762226502
H -5.936933915138106 0.16381178402542562 -0.266505066732998
H -5.3331698345298 0.7403569942935181 -1.9789126038529286
