35

C 3.9485586519844245 1.1198295682858166 2.4537478939514177
C 2.8854526448729243 1.726824058487825 1.992162316647242
C 1.963359603857244 2.0951992069388234 1.1817720226612163
C 0.9643075521595504 2.4327871992236076 0.40522874354648114
C 0.641692040033436 1.772895276542242 -0.8599532045594824
C 0.6811064348426508 0.3075209714528743 -0.7918208490970633
C -0.3532993652367561 -0.48321140153025277 -0.9467269630015209
C -1.7478564405011143 -0.205524392894342 -1.2129899780722742
C -1.9729734777128258 0.8768097110780425 -1.910556161204735
C -2.150969560358434 2.0285943609384183 -2.506503301108446
C -2.304740968907292 3.19496003712287 -1.6651743787527225
C 0.1234607293404791 -1.8863510865556758 -0.8052388110101456
C -0.5603005779787668 -2.5640961665681448 0.286830097658
C -0.27490277256462103 -3.9542196525294133 0.5597944128602702
C -1.4085148274811479 -1.9282206558486572 1.0208414643175574
C -2.1850574676438383 -1.2843723145254307 1.8343268802547397
C 1.5710068788062288 -1.719493106577905 -0.5610830231989161
C 1.8947729625611147 -0.453653665374028 -0.5508638043280317
H 4.942150151223152 1.559665266188411 2.419783218724643
H 3.889639936606727 0.14000803229704348 2.896822782612146
H 0.34887819442693246 3.254901115968222 0.736734112092483
H 1.3260430483417662 2.168035976586979 -1.6527067676609153
H -2.607587451213595 -0.7380346930026022 -0.9372110646144491
H -2.156367645508883 1.9454259854832023 -3.570343243051207
H -2.728516048811226 2.9012665510147273 -0.6819619321520746
H -1.3789224589819002 3.7672311970538073 -1.4488966742227884
H -3.0160546332998686 3.959165677569858 -2.0693667947797683
H -0.05146566925761097 -2.3775574133066675 -1.7985254845377767
H -0.7895135114605952 -4.350640639280227 1.4825957204057953
H 0.819985254564836 -4.040552686404025 0.8162178874679477
H -0.5307593691824931 -4.648927315668696 -0.2769031939073372
H -3.205317838249766 -1.2741462653107514 1.6332876059294241
H -1.7864683792445943 -0.7958655844551458 2.6578219809623937
H 2.3049244335626113 -2.53093802970211 -0.4051611801206855
H 2.9042499464064693 -0.015315122699071558 -0.3900781815428058
