21

C -5.3675712145742285 0.7756459376735771 -0.5084658897921458
C -4.207524905059031 0.28295955889068025 -0.1148266153258862
C -3.0366572870800153 -0.13521363370100287 0.30770595000169887
C -2.2377287323731285 0.8300277944419984 0.9970406745384254
C -0.9264589828123921 0.8363636017174177 0.8633949480168036
C -0.28295088263802637 -0.17276654699299407 -0.013731327959162293
C 1.181816272681133 -0.24854877567501615 0.20594782549995064
C 1.8641350645362527 -1.2748662656898653 -0.23385537728970646
C 3.285401797329799 -1.3703569082497915 -0.03272564882543302
C 3.965058658311321 -0.2696790546352168 -0.18077877449091903
C 4.580762259862669 0.8806027669128708 -0.34689553340487916
H -6.146756354273086 0.6697540799442672 0.198461315744307
H -5.351950055111221 1.206239655368951 -1.4734929937224248
H -2.8298108430837354 -1.1456544871141454 0.08203832407400766
H -0.2895191609030612 1.55577163331514 1.372781601593989
H -0.6903346139457477 -1.2071698787208538 0.17827490405862867
H 1.6920754158316826 0.5523036334715634 0.7350070682489431
H 1.3629063643270833 -2.0818756630939945 -0.7646234122244651
H 3.8610013100455323 -2.217782889050936 0.2210259822580177
H 4.905934710040547 1.0687147076781336 -1.3359435173713152
H 4.668171178888211 1.465530733508997 0.5316143733437911
