37

C 6.296831754205916 -0.37354514205164135 0.31513939179437356
C 5.063584216370235 -0.2076554776399441 0.6897353034469301
C 3.8080806366954327 0.02022554640019379 0.9067780133637316
C 2.5338609836227035 0.13725811144021285 1.0810063277274287
C 1.6722617411004987 0.52350276474152 -0.06140440909351452
C 0.42195710043690104 -0.24499561334074008 -0.1362954791509465
C -0.725294420198497 0.3633684297488913 -0.25436597124791516
C -0.7742551918782671 1.805135976033623 -0.31254610712934566
C -2.175365976498304 2.399164852290595 -0.47543157917551176
C 0.15846591760510045 2.7054421033007348 -0.26461210394615237
C -0.17876098220805609 4.176253337553901 -0.34830994961285583
C -2.0736870995951646 -0.26718270492302443 -0.3368899260111285
C -2.1798882386893794 -1.6391446107619878 0.11860531108921642
C -3.4285687737734283 -1.9540271800689824 0.5013878591689661
C -1.2502029872386584 -2.7423330907504115 0.2489730818580962
C -1.7815787247438288 -4.127825631171696 0.15779776415254063
C 0.02793707350447272 -2.6601999357770163 0.4419646883244631
C 0.7019046133813341 -1.7017451926577654 -0.06203279299865595
H 6.574201609329228 -1.3366123088859596 -0.08615993074569535
H 7.064838252966102 0.38131214383016215 0.3757606300245794
H 2.0972662974531757 -0.0440488143340996 2.049173225133803
H 2.2089018754114447 0.5090794580393515 -1.0113089793799837
H -2.7570343166203504 1.753098387009332 -1.1850777985214813
H -2.1186477888001503 3.4188946389076094 -0.837735042837561
H -2.680339749074966 2.365781557831679 0.5052588715066763
H 1.1850361301970864 2.5092341618900504 -0.168666595922063
H -0.9449082952273263 4.470436512553455 0.38979349244813977
H 0.7755054235095962 4.744826212848381 -0.19035486419888972
H -0.46462516712327356 4.405436188252296 -1.3935686191196914
H -2.8046286777078833 0.3704287024769655 0.23899106392598854
H -2.3880786645091416 -0.21996784994381163 -1.396803998372621
H -4.209384914772328 -1.2084720489208993 0.4445921130691922
H -3.6299944491278353 -2.942013809326871 0.8562731331747366
H -2.048030428147296 -4.474774805752321 1.1803125215213912
H -2.6631599668222847 -4.166047583816943 -0.5093369216543747
H -0.9643055359909535 -4.784639137416687 -0.20462146764063396
H 1.650106722958385 -1.9636481476080265 -0.5208714614144496
