26

C 4.275442202716223 1.3288378640921648 -1.0920340669371236
C 4.124993260481854 0.47504723472690924 -0.10858460940102331
C 3.894687665615897 -0.39612371810767805 0.8327237949825856
C 2.6628286514968846 -1.1129011913265163 0.7682338413009027
C 1.534057288782738 -0.5906640805137581 0.3175339077367986
C 0.293299885066542 -1.3511668500805045 0.2653723920171736
C 0.19978468035945113 -2.6330024071911606 0.6681363900545643
C -1.1816929848172442 -3.0976800792272714 0.4831600354835283
C -1.9146412598979081 -2.090856304447599 -0.031247220873858693
C -1.0126192101753533 -1.0087217884104207 -0.1691063538050199
C -1.3377409892285501 0.1529579090368779 -0.6318254508978681
C -1.7029040938455176 1.3764028457537005 -0.9641439383751974
C -2.138229044226268 2.2419769076365785 0.1176973958289444
C -3.642686367812967 2.370776353764461 0.08373388107923833
H 3.901730331642727 2.300283098580169 -0.8986296762372261
H 4.750139059708456 0.9371446195172275 -1.9527175433041846
H 4.67469590262922 -0.4711758562721665 1.5575798557492693
H 1.5678024475057961 0.4358617303791479 -0.015134120343631912
H 1.0010891640919413 -3.2470409996496286 1.0688923762723523
H -1.5350813678327897 -4.087609440227094 0.7251394558484954
H -2.968374610288687 -2.231540863235382 -0.24333600699422797
H -1.6204304808190733 1.5446119828701041 -1.99707349242557
H -1.7318756310343595 1.9611281590028469 1.0836745892556963
H -4.0784341929121775 1.6922415705444662 0.8235876308771787
H -3.9577469782130303 3.4329270768509113 0.2292636003928042
H -4.0580933289948815 2.0682862259333685 -0.9208966672846147
