35

C -4.539188481665292 2.2276430665115883 1.3979068658180416
C -4.010684228761715 1.032896130751842 1.5164705728331065
C -3.4137718498200247 -0.1380861636005336 1.584550064187098
C -2.354072940154345 -0.3771819619976432 0.6245086831226739
C -2.6935713947127944 -1.3827127090751419 -0.38765700981757806
C -1.860474994793218 -1.4872811634691645 -1.6023017232898102
C -0.4023009855248286 -1.5928639769620794 -1.3802451433442295
C 0.32694067152303236 -0.7970018979038552 -0.6191777719706513
C -0.12958207727896134 0.36052089890643246 0.17307314234768995
C 0.9139166734692312 0.8573989195114199 0.765299293778912
C 2.1177145571740894 0.10072541932142555 0.4317923784798198
C 3.5119819998677335 0.33559120761606687 0.8951244223608387
C 4.30092884467799 1.1429109883258357 -0.03801231981664044
C 4.7693681727365 2.336438098011742 0.29476368144158627
C 1.756580173596699 -0.8741790825234391 -0.38710536542255547
C 2.6609116940450988 -1.8938186871282903 -0.982541108909091
C -1.5611044314660723 0.8082469765717527 0.22856833999155227
H -4.078641556217613 2.986048046716078 1.9715446528267782
H -5.368575553863993 2.269485023125285 0.7314155247887225
H -3.797660771871805 -0.766752531715402 2.352543374089544
H -2.659552051152298 -2.395622134930843 0.11876707586277223
H -3.7517124734503358 -1.297612276451689 -0.7192960591897208
H -2.0826222709145985 -0.6084501389839077 -2.2741878332494507
H -2.176478716023202 -2.3863417268177685 -2.1754416548578415
H 0.12884659046400937 -2.385490382263911 -1.8770541269297822
H 0.881687027201965 1.7189093172826253 1.4173877173077598
H 4.001552399822271 -0.5585331786023641 1.2781115831405003
H 4.509672809936474 0.7583017197758579 -1.0277547895344368
H 5.354231401184031 2.949488018522118 -0.3789017328321254
H 4.581777574768697 2.75803250862503 1.2784836487345037
H 2.1061297043211966 -2.796620786115049 -1.2347209094697669
H 3.096731388785884 -1.4701642811344557 -1.9047074529392647
H 3.4062985135302273 -2.157884149089225 -0.2139238312074231
H -1.8416650498093377 1.1075217006023341 -0.8063743552944003
H -1.7036103696228457 1.6164391885889553 0.9490921669633016
