18

C 3.8745529772044165 -1.071696462342792 -0.2078568418598568
C 3.2025217502085876 0.045955110468642396 -0.2246605422957128
C 2.4593697939927686 1.126554584196387 -0.2387766450908804
C 1.0551452297185513 0.9294751791073292 0.010865478444744664
C 0.37694882241017824 -0.0733869049611413 -0.5216318659977861
C -1.0648867457343414 -0.24970397802390437 -0.24654658583415073
C -1.6999302543813664 1.004752619232965 0.23227071013034822
C -2.8493308709109426 0.9864540328373497 0.8913657390010981
C -3.540930492892876 -0.31828908582921894 1.1706339812812923
H 4.2608170246199375 -1.349703822393384 0.7344773511839754
H 3.9492355658171285 -1.5695735083669844 -1.1569723354755082
H 2.9887898192003477 2.018302662826913 -0.4337630931516528
H 0.8598405058875955 -0.7898282393728738 -1.171714201759345
H -1.6115111889450848 -0.7213846009910156 -1.0733584080946261
H -1.2178797086003377 1.94869712933065 0.04076260476316949
H -2.7921495890381647 -1.052812549460834 1.5740978421002478
H -4.31381639103433 -0.2056948377039005 1.934957940643587
H -3.936786247521368 -0.6581173285541277 0.1884923673453703
