17

C -2.463130729054703 1.4260867743785115 0.12291143346485318
C -1.9992453415489466 0.4456585507596053 -0.6367796917076599
C -1.5186479678655982 -0.6848760874257637 -1.1109516089518334
C -0.98237218940848 -1.6895316649959755 -0.1708241986655994
C -0.17175801337563676 -1.00421677971232 0.8231167843079876
C 0.5912134565177477 -0.027174198871534817 0.36826875635012923
C 1.3756328732138088 0.8609271466848181 -0.19506925029802596
C 2.6650062464854973 0.36274683647941636 -0.6593188491853432
H -1.7962711242072227 2.189555677445285 0.4527914895991528
H -3.5115182658816773 1.378119504712052 0.3610616130226278
H -1.798061861532795 -2.276073913795592 0.3269336029124063
H -0.40797881088610993 -2.440856704868969 -0.7788325591100604
H -0.07740150976654853 -1.1465178018230269 1.8607378897084805
H 0.958229931842349 1.8308966385787782 -0.23708684932347218
H 3.0762715704820844 1.1174940733245737 -1.3898557240484013
H 3.4413227333942227 0.3006327857412077 0.1401656942489598
H 2.6187090015920527 -0.6428708366110568 -1.1307782218690101
