21

C 2.726752682578676 1.3931738691576583 0.3485056538942393
C 2.522395399765413 0.2720027305401671 -0.3176380612931349
C 2.2514303692955857 -0.8190878325623441 -0.9766920830338208
C 0.830104047180593 -1.0520292393195145 -1.2759919676017477
C 0.07394571562223526 -1.3696266860582413 -0.0036294602402747993
C -1.4022665872896185 -1.6396319110032571 -0.10850436951716373
C -0.9079135435512671 -0.4100953196825985 0.5526789843482199
C -1.2153880718892076 0.8803927304233125 -0.1842216478536585
C -2.2514497034143797 1.6376185207549616 0.6374853701191654
H 2.890389948180816 2.240616461091832 -0.2601281728356529
H 2.6971632342698886 1.2858296772946853 1.4011169922124385
H 3.0875553831525413 -1.4200496500712099 -1.2250759740391437
H 0.6406960219377842 -1.7510465316464636 -2.0889344397432965
H 0.6154277753943659 -1.9995123302800697 0.7237796904584206
H -1.8929552415272437 -1.5901562956281388 -1.0975124888618817
H -1.8549493407327633 -2.4042464815358504 0.5540242495548583
H -0.9531394319852584 -0.3005197093375797 1.648519468236639
H -0.3065963757143947 1.5313242541288339 -0.19267787253869384
H -1.8247845227667798 1.884298630667568 1.6331964940370958
H -3.1800255975319307 1.0504261522263274 0.7741270200175481
H -2.5463921609751106 2.5803189608399015 0.13893662819655497
