12

C 2.6318618861798373 0.44581303509407955 -0.3055904012214329
C 1.408011448152907 0.11212054886182107 -0.6047618894228168
C 0.15395320468462326 -0.24627383883339674 -0.7792234932494889
C -0.7195625621484135 -0.19494548422719157 0.3893505184684191
C -1.9631148237399398 0.5755127275198317 0.30509365857278964
C -2.097222771319452 -0.7618244597060254 0.1462112363965448
H 2.8298484249485334 1.4977249692798504 -0.4151049836766548
H 3.272828360835747 -0.3327265458869044 0.003126531008103012
H -0.06013593879401618 -0.5327739880659685 -1.7749652892848327
H -0.33059720675052257 -0.5080501722459849 1.3846049957500912
H -2.4156871670130315 1.5766804151726788 0.350452534936728
H -2.7101828550363276 -1.6312572069627238 -0.027059692514999067
