26

C -3.3365853758045545 1.226568494290535 -1.484261043509475
C -2.6506441528492695 0.44378718371080317 -0.7092869343224141
C -1.9470704216584853 -0.12802836966433243 0.21405975045758951
C -2.5711099503333923 -0.5638264573320431 1.4446693980648169
C -0.5543049471507306 -0.30799019307358605 -0.019984782578745024
C 0.24363455704802903 0.7254035709986588 -0.34519738482478435
C 1.6835141081643492 0.6130107174057519 -0.5996801085171186
C 2.5026685703723395 0.5723107842942069 0.6242911461455332
C 3.4426799057743604 1.4692973481065688 0.8491365999184695
C 1.90288398862979 -0.6705090363558229 -1.3287976183945025
C 1.156151490288458 -1.6874227907686299 -0.9759569555386785
C 0.12741099497904704 -1.6519640047074637 0.07808147323962633
H -3.39532385685348 2.2625729433332022 -1.3821485364271802
H -3.8490853956656053 0.7376758290107989 -2.249177869025952
H -2.5936755022612843 -1.6856504174118836 1.4739306893757194
H -3.6439437278920455 -0.26425881299032916 1.5316725776154863
H -2.0817787639781886 -0.16756066411041057 2.365782440340266
H -0.2512629821738123 1.6846269577983504 -0.4124981455376978
H 2.0209810992120447 1.4581150816099593 -1.2355986438063953
H 2.3379032555404486 -0.19927131695555939 1.3528324906868943
H 3.616821776816108 2.2646990722549813 0.1041815735997481
H 4.052793082439016 1.4505046406560536 1.746375456254897
H 2.6478367481758087 -0.738310829279906 -2.1086203372696106
H 1.318700046412012 -2.6350313836810706 -1.514976709542102
H -0.6691945399355481 -2.4074270197957097 -0.1197356036981737
H 0.4899999927055541 -1.8013213273448956 1.090834778750106
