33

C -2.9430452112400585 3.9359887477630306 -0.0870958668396326
C -2.5754273931068137 2.6944553225878765 -0.12663366572715368
C -2.0187371959605374 1.549089327080089 0.0926495156096125
C -1.7714179754654888 0.272553124184191 0.30318711701408674
C -1.6586662404901658 -0.6098690443356624 -0.8858352882605239
C -0.40968235234680866 -0.4484666104065338 -1.611536045075161
C 0.6905135814088977 -0.5348650119583727 -0.8853700958360042
C 1.7203135069004887 -0.5338147224312259 -0.062200645644827045
C 2.071079312970985 0.7324510035593899 0.49600948226631075
C 3.328858464259964 1.1118639545868103 0.5296501658162645
C 4.403690922224459 0.24712242555923342 -0.003918761717058806
C 5.753027486855236 0.7712969075919366 0.4470715946756885
C -1.945595211300233 -2.0283980921254705 -0.561214757538023
C -1.1395395730506968 -2.9488104352010858 -1.0619776745010876
C -3.043807330628254 -2.418067399924659 0.2588133526780477
C -3.8180352071872647 -1.4846625846939092 0.735674574646296
C -4.531203690635097 -0.47279247339538305 1.1699435034425196
H -2.6033056145975118 4.661817627707337 -0.8156839879099776
H -3.617790777446438 4.298049325474544 0.6935804752473053
H -1.6494320076464903 -0.1533011315016061 1.2786280296691852
H -0.21495214194703322 -0.2703698604657052 -2.631338599846501
H 2.1456552240814646 -1.4895692174792847 0.06966189074096436
H 1.347460265269969 1.4436611364926022 0.9162583259108659
H 4.314981508894757 -0.7838262434896761 0.43331887178425743
H 4.388431242412191 0.16635356577268037 -1.092488739839296
H 5.856285140860873 1.8501018441316635 0.2797627098427221
H 5.82978314550471 0.61870750554919 1.5544138307321462
H 6.5506245611832306 0.17893556767183544 -0.037976555718944566
H -1.273513124451938 -4.010599734681108 -0.8769260258927765
H -0.2999031299270927 -2.6860119030210843 -1.6859877970197918
H -3.3302983378727298 -3.401662748336301 0.546622505879959
H -5.338298044375071 -0.1938511355302952 0.5285144458143775
H -4.218053803151749 -0.06350903673424908 2.092424115595751
