25

C 4.486231217291606 0.1314359567288008 4.412623330479413
C 4.217783847570535 -0.6978083401483465 3.438817147979515
C 3.66839779242272 -1.36997049368403 2.4257428035826725
C 2.5157104258957217 -0.9853474455656186 1.9129709296101394
C 1.7041532257526535 -0.960839651006874 0.9363393614233235
C 1.9417363318044822 -1.6213194395480168 -0.39784195571749076
C 0.8703716068782092 -1.4007513785718761 -1.1015886011533258
C -0.11459767167128748 -0.6403251735986716 -0.381234104386505
C -1.4660649165630482 -0.2555284119909048 -0.8543000876353819
C -2.5211567427370185 0.034064857269412024 -1.2156191434662758
C -3.835142423396305 0.3985820230197167 -1.6399995259591529
C -4.2812119617371005 1.3127330493703342 -2.4125155115503705
C -3.6551332463079778 2.3884066389950034 -3.1861165854655766
C 0.3788578876776425 -0.3810385079246099 0.8119073357484898
H 4.86473679950987 1.0693686424922484 4.071840488120917
H 4.285396345846154 -0.19825446386482445 5.3916546859341254
H 4.347356096468916 -2.2050859925116026 2.1878822174047476
H 2.850698746072311 -2.1670434927636544 -0.6225132593586791
H 0.7360056440835421 -1.7676429306620278 -2.1416234718183147
H -4.660571239626584 -0.2614056064973085 -1.1990509940676113
H -5.43755300033756 1.2669067394896996 -2.522593721966845
H -2.5784998276659423 2.5184855173417184 -3.1680088898794216
H -4.03401078067689 2.239143107591195 -4.259026479464901
H -4.158949328855921 3.3623304003688315 -2.876957057648217
H -0.12454482770678645 0.19090439566941522 1.5732270693993475
