13

C 2.332695324514885 0.19523416890331136 -0.5252359482803818
C 1.4009984765329206 0.04263960815001552 0.37425682260556936
C 0.3993379168982707 -0.11737550890040885 1.2057354148566997
C -0.917630563897893 -0.3184317351204825 0.6204476593402545
C -1.3992556388477735 0.9435887774645412 -0.16905531748709254
C -1.1909157973975122 -0.3823669225603784 -0.8016684677272238
H 2.507867028855881 1.196299785731278 -0.8315784947814457
H 2.802951340692949 -0.70943078181282 -0.8421786057727353
H 0.6658261738458393 -0.08169577003685215 2.2227134747331574
H -1.6736411500449409 -0.7481592834788029 1.3220878330428576
H -2.3768990969581134 1.3195908233337794 0.13189646692385112
H -2.132400342480746 -0.9102468606256768 -1.1166408248952369
H -0.4189336717138046 -0.4296463010475033 -1.59078001255832
