31

C 5.899398059296064 1.2328674832631183 -0.9398591771284777
C 4.863899932997785 0.5148185006275008 -0.5813933639373989
C 3.8002892800069454 -0.04521605404238487 -0.08028487090168407
C 2.7537596631830263 -0.26897219008043155 0.6738023865965367
C 1.4526881439223107 0.40427482456408514 0.4427241967790593
C 0.406089653830093 -0.5752505519006942 0.12864432793763175
C 0.7259404419053366 -1.8570489847023983 0.09137390623316038
C -0.26795267554657454 -2.8826342756091914 -0.21492960019625906
C -1.615638501034104 -2.3856752120852054 -0.4711715090758001
C -1.9634802188643732 -1.1194069412242211 -0.441403920946923
C -3.3251274603407053 -0.6657331281112584 -0.7043863653996335
C -3.6210890224020518 0.6106340506746092 -0.6622894487936292
C -2.642994830789778 1.6556738098506159 -0.35784589544053585
C -3.058519703459692 2.605032411540187 0.7169564119954921
C -1.293708811705949 1.1545322240204055 -0.10159639600678276
C -0.9550535919806042 -0.1290960425272296 -0.1348601994709493
H 6.90749135770714 0.882199097501011 -0.788843653918424
H 5.80256494327179 2.2108256067570515 -1.4041345399036906
H 2.8727416659002025 -0.9791121079288879 1.4915383046329052
H 1.598619744442354 1.1092050509706028 -0.4163197027220201
H 1.2370747899135015 0.9989251479140672 1.3536635452376786
H 1.7558850774949557 -2.1953359418569964 0.29070732567676744
H 0.07606372947538077 -3.432609272540967 -1.1386227397442192
H -0.23552887465453845 -3.6372496307465143 0.6183754486584356
H -2.3844752903642146 -3.1152088488762075 -0.7027204325126798
H -4.068419510879588 -1.4371321983286094 -0.9338284254633428
H -4.639374041865649 0.9184574317034885 -0.8616040962762828
H -4.123272693207005 2.4550511761526903 0.9605085578261257
H -2.4968767187326373 2.4295741316753903 1.6752266291328775
H -2.9439964012877615 3.677179753195168 0.4017278436495645
H -0.516998136231714 1.8664306801509465 0.13022549260756852
