18

C 4.504970298660375 0.6953097426430777 0.13016675635522099
C 3.2146379779831986 0.47110403885263485 0.22749594656881367
C 1.961693159637954 0.20957718344066278 -0.013195940166606062
C 0.7174778088264211 -0.16160726160081332 0.0347846912626799
C 0.22941389590137795 -1.261176859017961 -0.7791965583330079
C -0.9601041104444222 -1.2269025540545555 -1.347342553896283
C -1.8629820464807252 -0.06075660301709504 -1.1838958316736246
C -2.8253548736934415 -0.29568601552152773 -0.05018918531694988
C -2.8719959606548864 0.49776946911715103 1.0017681361018558
H 4.916609445795341 1.6647725281749781 -0.11262043586495703
H 5.165870547173447 -0.13886135692679255 0.3040906254591373
H 0.00499899101226994 0.33063544904453573 0.6775506037708549
H 0.8701244757102018 -2.118363509361516 -0.9106543081223488
H -2.4969573802943366 0.02058584592372186 -2.0993068513106294
H -1.2983097030642117 0.8665102740729789 -0.9736331656831344
H -3.5093169875423116 -1.1402650579492246 -0.08383642180793612
H -3.5624584972019484 0.31062579745216035 1.792128773459031
H -2.198317041324278 1.3367288887275552 1.0437541442410976
