18

C 2.8578860723964583 0.8922654149916236 0.15096262349887585
C 1.955139048872243 -0.05711274597573592 0.04902171034735258
C 1.0091205100408362 -0.9351053488136388 -0.11112231126151888
C -0.24355889389627197 -0.4569078838490352 -0.7166732030440202
C -1.227289643760696 -1.5542673720045652 -0.5849440460841887
C -2.0344371848547365 -1.2965939857847397 0.40589617135534095
C -1.7057082229409106 0.010002580967387764 1.0767214144545225
C -0.8656632734003109 0.6491904001018036 0.0390794956057067
C -0.7116820694204102 1.930385516207155 -0.16050213301255853
H 2.8192425580205818 1.4298186547180298 1.0706562458808215
H 3.498977078663573 1.0004927333496996 -0.6834954306882904
H 1.2533650640649137 -1.9161212261715446 0.21984404069816896
H -0.1187884432407004 -0.1947053284176503 -1.7957643997335047
H -1.235188547362101 -2.4174575802058995 -1.2351623896756554
H -2.8556575298613796 -1.9081392501308707 0.7490077808802248
H -1.0651986327693292 -0.1796443698725358 1.9707451335417445
H -1.2389963633994594 2.625138634207804 0.48205190080847704
H -0.09156152715229963 2.378761156682662 -0.9263226035715139
