21

C -2.397540945317037 2.2351343362192293 0.3053991114851302
C -1.8331946017292742 1.0777045867411326 0.1510091010386956
C -1.5304202974379006 -0.12807087250287977 -0.23061643837323553
C -2.4123944148966276 -1.2571482078017868 0.010984336860555093
C -0.2707033419611168 -0.2729411726517638 -0.9080980207572482
C 0.6737868416323175 -1.1951257283925782 -0.2267650120343909
C 1.8633281722049344 -0.8695684977129902 0.22946411741470846
C 2.4753280042716805 0.4377250576473714 0.15662518864627262
C 3.6972672076164916 0.6509701866328204 0.6571462479459615
H -2.9621900928964746 2.7410198896729074 -0.4208004397980494
H -2.245775456593213 2.6471624469284882 1.2432049849690967
H -2.4028142265295895 -2.0384636625622026 -0.7690158662453854
H -2.1439285876548153 -1.7898533905713194 0.966949059426734
H -3.4894536891743506 -0.968265129647062 0.14600366588814317
H -0.3991576570256975 -0.7478400308797216 -1.9400407713653691
H 0.2714437729856486 0.6537824312170709 -1.1462962111424233
H 0.3175101971478688 -2.234193779048838 -0.10894560933410839
H 2.445077900949382 -1.6573712545306745 0.7081271579602375
H 1.9528209749429506 1.2598462418110385 -0.30200857131067815
H 4.2418267102044185 -0.15722352369795145 1.1236167428218282
H 4.149183529260436 1.61272007312967 0.6043258810343944
