35

C 6.342254853208612 -1.601578165922762 -0.6373707069119289
C 5.318052420325707 -0.855849311527517 -0.34641223531962956
C 4.582452010780799 0.16944433485812535 -0.045801717992994206
C 3.7444718420683043 1.0601447348001836 0.42805762169486794
C 2.3159818147113422 0.8275120298551158 0.2821252317277579
C 1.763447122361712 -0.34986486330824806 0.3295534095138972
C 0.2999810355981707 -0.5955579221266933 0.180874244328837
C -0.1140847740569879 -1.8356323700301116 0.24398305701967535
C 0.9396356807537158 -2.894564600778894 0.4622755745973735
C -0.5989040565131662 0.5314573965780858 -0.03221803702754914
C -2.013944321891922 0.47913485438167913 -0.19815986603059133
C -2.5781919129273776 1.6740367507864933 -0.4118265900793973
C -2.946115875960063 2.9042366638124766 -0.678531383428385
C -2.9926212209902996 -0.546692888570017 -0.20372547604720018
C -4.29961828468964 -0.44858061337320093 -0.37181860755168356
C -5.141252193659648 0.7087366390326119 -0.5993232735311255
C 0.055223962134759566 1.7159064344602275 -0.06901501519228144
C 1.4603721162404388 1.9854038587670215 0.06963443340819285
H 6.9709457493972184 -1.399957666329475 -1.4975753816320372
H 6.610470500194017 -2.458034044149444 -0.030102770416499322
H 4.123888537205106 1.9593337908293593 0.9229281619421694
H 2.4513189485570908 -1.185011429316405 0.4904137390908068
H -1.0767459808172903 -2.217017726129561 0.16396977473145338
H 0.44634639222498795 -3.8790952632321782 0.47074859000170827
H 1.3916723632731545 -2.678829297494339 1.4593245708348277
H 1.6868737779062912 -2.8752753972187266 -0.35543276951903935
H -3.3013544551637013 3.4369208074609885 0.17272286048165347
H -2.8407236952630646 3.1836352742543577 -1.6853928106538785
H -2.739879382561747 -1.6162850756066427 -0.050911935566209605
H -4.850076304408304 -1.4309524493339303 -0.33177587884297893
H -6.225697008447257 0.3377934033532641 -0.6544704313157593
H -4.897521974779613 1.1800559949330403 -1.568337371372268
H -5.101707551258578 1.4584710791049293 0.21896213608771442
H -0.592133823855287 2.5872768812300304 -0.22678011053034328
H 1.8071836903024376 2.669278155950441 -0.7299053045342975
