21

C 5.611840049181804 0.23026173722147522 0.6631539540152012
C 4.43688462436326 0.19760520055710884 0.10362444916033232
C 3.4730035740464604 0.3553534997133482 -0.7582265039144582
C 2.4697710702180475 1.251451158791469 -0.36918950042268167
C 1.2184380331082725 0.8456956248818063 -0.5300283542051245
C 0.029897145370075352 0.2992384398286417 -0.6260838541023634
C -0.4325547776491647 -0.445223929202295 0.5010919472391714
C -1.7083887240257758 -0.6131843086800423 0.6662653914868284
C -2.9454239965621327 -1.0170331449492036 0.6707224726452349
C -4.249103426982845 -1.1424153553987126 0.6993127474055544
C -5.124984954821435 -0.21273829233743877 -0.032475084122115944
H 5.710719569560081 -0.5020279688449929 1.3905528409565413
H 6.40479665506809 0.8992859085496977 0.44252209347922544
H 3.4235243432873483 -0.14480356521804044 -1.6985558623703765
H 2.5063806854479678 2.2306855882162946 0.04674262186257802
H -0.4575564332582797 0.47363410896324537 -1.541977834954098
H 0.22246984374675702 -0.8789032018519993 1.227994878814644
H -4.657624729987756 -1.939503431819603 1.269568598071318
H -5.014680247816146 0.8089896961621793 0.39796708052252244
H -6.160030535920798 -0.5794309473677057 -0.027707495854994282
H -4.757377766373576 -0.11693681721532158 -1.09598019220393
