23

C 4.425619475993227 -0.9491475363167413 -0.3891496799034804
C 3.3987767347003124 -0.7295180016073446 0.4169366671876427
C 2.3719676826206286 -0.4738030775160782 1.1534927209028922
C 1.3754286441046215 0.4303454667245369 0.5649920304951906
C 0.1478473564897766 0.024203713590276323 0.42262688326793374
C -1.0350462870452106 0.6176969029606414 -0.0920429561182378
C -1.1821612073757901 1.9286071801121785 -0.6302356668079744
C -0.34766212622131726 2.8806332282471416 -0.7925401388380815
C -2.1752873611316863 -0.1340315559563572 -0.080738306990197
C -2.2962198286211555 -1.46235335104828 0.39903919750864114
C -3.490702727201574 -2.091172719226236 0.35006951123331603
H 4.300465111904054 -1.775624516497128 -1.0327235627629188
H 5.220273479490611 -0.26844839383853447 -0.27425548135604305
H 2.3368819993843157 -0.9288309414142327 2.100111835318139
H 1.7390118109351698 1.3758179338867877 0.2908902978214281
H -0.009761112330043318 -1.0487608210855448 0.79561577352597
H -2.2395180415885947 2.1928652735018876 -0.9882240956371572
H 0.6807184424048296 2.8851591857596723 -0.5445935124751488
H -0.6714340427754486 3.8652078726099637 -1.2485434727924096
H -3.097906417495279 0.33727518730458317 -0.4853802372055198
H -1.5177695638480402 -2.0539596259548705 0.8147932641589948
H -3.6154701038777746 -3.0872257281448863 0.7015593358352761
H -4.318051918515611 -1.5349356760914872 -0.06399037302253681
