19

C 4.349603473061864 0.4453738652650709 0.18375931222357578
C 3.4924613954653982 -0.41815436272695944 -0.26690570636944144
C 2.4584396057801503 -1.214153750310969 -0.49080891128326687
C 1.3148107118021468 -1.1577594131952103 0.445113703229915
C 0.5156160693306306 0.11661506837797692 0.29645778929477606
C -0.022164561126213598 0.21603941567901788 -1.0904437914874998
C -1.2566979592306504 -0.16798074000738483 -1.3346331631248523
C -2.546961265659753 -0.27804951821560936 -1.4516163746114485
C -3.494651506261534 0.4860939472661075 -0.6620671764039749
C -4.336983069326048 -0.14117307509175628 0.13099288416054256
H 4.306612416311933 1.4701438375150886 -0.11006109321941963
H 5.105070416323188 0.11370276072339353 0.8622738458070366
H 1.6963220712218043 -1.2363082571720905 1.4770490450083866
H 0.623028787181351 -1.9961630807921313 0.1730847287778089
H -0.35518913873304236 0.013377920884937822 1.002944689139878
H 1.0627551664917925 1.011743022208754 0.611635506408833
H -3.5118907767940564 1.5598158986933781 -0.7217433900222211
H -5.060305746255382 0.39505877290500363 0.7369033107568326
H -4.339876089583477 -1.2077461651722345 0.2080647917145496
