19

C -4.055993961044421 1.0022048748880792 0.026781299868063154
C -2.9543314879342955 0.4379042278791352 -0.4230161387049311
C -1.8237793972503815 -0.10516179571630284 -0.7821581315292596
C -0.7862848334259062 -0.19539851858416632 0.25459893871713396
C -0.22995256841442793 -1.5425418322314959 0.409276731734944
C 1.0910350150536519 -1.5360325288287142 0.2984196410968146
C 1.5577330700603995 -0.1927506804309484 0.059137349232843854
C 2.7559246166872438 0.29724007497976 -0.07061338131618626
C 3.986304476714118 0.44931996638431304 -0.4783250974426822
C 0.41312424885541593 0.6697987475627567 -0.0386402740234498
H -4.760459724754908 0.32473992849640004 0.4291196103158684
H -4.0824822639541685 2.053662152295023 -0.07609926381929051
H -1.7839876778879198 -0.4204864318951584 -1.78662004494845
H -0.7997899203808717 -2.435175782991807 0.5898161122294845
H 1.7318961531503578 -2.414406518767354 0.3762707123407499
H 4.63901280185039 0.6758244551044342 0.3162106806811017
H 4.338588221996754 0.36515660046678067 -1.468040212860408
H 0.3197914936328693 0.9966546633081419 -1.1099473845327021
H 0.44365173704665223 1.5694483980812997 0.6206151256228056
