38

C 6.032142362472237 -1.4036520665892303 -0.20033568026380427
C 4.731938696618177 -1.6222101779007505 -0.24341080923667996
C 3.4241558628381252 -1.7407372874526081 -0.257132974982121
C 2.655193248345751 -0.5622391740863719 0.10863967607622466
C 1.2065194915835442 -0.7288182127818698 0.06603009930702915
C 0.347194045609302 0.24689990582023993 0.021398363339797347
C 0.9372523754398464 1.5814610897769585 0.015940643658399156
C 0.4274011653068366 2.6915311894070824 -0.43617683232274274
C -0.7637440512818036 3.0395856478184133 -0.08626990483659516
C -0.9474193925985763 4.531420575400751 -0.09454097891494438
C -1.9029087812610919 2.2339140064250254 0.2973239640159012
C -3.0726265621523057 2.8052249152246023 0.13381406681110397
C -1.9143108191026055 0.8484416118576064 0.850870889540461
C -1.088967848252374 -0.05038301492615237 -0.018251211799534046
C -1.4496382516342359 -1.4478968684773923 -0.00011084851765877848
C -2.3777747307393047 -1.9516189629281193 -1.0579401873105323
C -1.0257491297078 -2.350089326368663 0.8873998662873207
C -1.4344102909938128 -3.779945345795087 0.8530845935964427
H 6.474037341187256 -1.6082133114719628 0.7378719258676631
H 6.4436652684914675 -1.0557029210793083 -1.107330173563012
H 3.0860697669749584 -2.70503371848638 -0.540319238907266
H 3.0155594231226566 0.289958912408895 -0.5386559692107135
H 2.9389801619730243 -0.26161258827273615 1.1582658515451534
H 1.9262502627255158 1.7157847382480163 0.4310796367648581
H -1.3740443538750744 4.800485696535197 -1.072134174939417
H 0.007496862811410903 5.010980478972944 0.11550954137545107
H -1.6626720152141 4.808325369496285 0.7131875483935547
H -3.141314918073616 3.7921891871418025 -0.2557580631693895
H -3.9667055993845755 2.273355608246059 0.39484502988396947
H -1.599950287860611 0.8466050151133983 1.919094407474893
H -2.9518987090399023 0.4821010657061068 0.8265608825312067
H -2.7665945526966604 -1.1371499176542357 -1.7020259837129375
H -1.9318148350136979 -2.759452562779519 -1.6575061495727204
H -3.2890524711838447 -2.355926279201717 -0.5270244519283812
H -0.345972390560547 -2.0530959709459435 1.6878811179386228
H -2.1510065450037548 -3.957621513660991 0.02114854512978672
H -0.5811165718457894 -4.459092535557401 0.6733618170920739
H -1.9141632280246565 -4.007773257181023 1.822151324662685
