22

C 4.615840184079281 0.708172678347289 1.0625750519952317
C 3.529446821962194 1.028664884754054 0.3890339200178674
C 2.429313698322859 1.260550489590415 -0.29046148009304135
C 1.6662557311521697 0.08572278316313657 -0.6992009019453185
C 1.0263631534112008 -0.6491657901857006 0.38048277387397794
C -0.10359424851411397 -1.2527940097840775 0.0841730624236753
C -1.3051439077464415 -1.6749537545534268 -0.2799784801878994
C -2.3959550720687344 -0.7868793232528744 -0.11120528893103777
C -3.7507279155151916 -1.0762052431114493 0.37351773199025345
C -2.2111568215142103 0.46744320005840045 -0.41737675768464255
C -1.9607944111243143 1.708574249239577 -0.7398309308375541
H 5.4755891346804555 0.5628835730903831 0.46487838165903994
H 4.475806073587097 0.6398590388171723 2.1103291337221064
H 2.2344661198478803 2.287141080448369 -0.45697280948251356
H 2.2871408805667617 -0.5746893423226308 -1.3409676284967023
H 1.3120614861690512 -0.7885995858809345 1.3868954341811226
H -1.2643089835341772 -2.6625911853809763 -0.6625802106129848
H -3.9674261410787297 -2.1414742240752207 0.20827513944227274
H -3.7989492306970916 -0.8980693289544278 1.469109165391344
H -4.537725335994441 -0.48701436800995823 -0.16820938228661605
H -1.5938542314523985 2.300077488339845 0.051606910191826255
H -2.162646984539484 1.9433466896642262 -1.7514253377700655
