17

C 4.2910665347966 0.2502272498346207 -0.0023132810558235107
C 3.0342937965715904 -0.09837327276533989 0.1726495336948923
C 1.762077820879836 -0.4077796711643358 0.2504741250796008
C 0.9440337239884414 -0.07988426002684967 -0.8621489488629233
C -0.1662561583584899 0.5824893710382227 -0.5945275732084256
C -1.29353068254964 1.1459319505624284 -0.21016872328345526
C -2.3641387713388515 0.2520394917204408 0.10133424896126937
C -3.5774439562467957 -0.2471828360335046 -0.30559145559767203
C -3.048822684789674 -0.7604683038218163 0.9525597354647025
H 4.524005214422601 1.2292229661418155 0.3297498144105609
H 4.895209691336798 -0.4922793282638886 -0.4500673912602075
H 1.4985924205073573 -0.8815766292095356 1.1707786298458946
H 1.0603977629396175 -0.2733916716999019 -1.8944219210916362
H -1.2417607607295722 2.1970693896838087 -0.1862094416858831
H -4.3659039921907965 -0.2464896856186691 -1.0508728970752548
H -2.551734380641473 -1.7713959510266755 0.9144561852806662
H -3.400085578596884 -0.39815880935094977 1.9212918449131975
