26

C 4.100834747698336 -3.6714080626787107 -0.5580376610821999
C 2.942341134529256 -3.456796291932857 -1.1922137171298635
C 1.943172528881501 -2.754760051590818 -1.6872622062464195
C 0.9446889041962288 -2.190924984297841 -0.8428970332288087
C 0.7093910556939979 -0.6597897372728744 -1.0120431324295933
C 0.1969694210933457 -0.053204859083274984 0.032980280720063586
C -0.11658992839653577 1.2480388597115046 0.042729778938883155
C -1.9370723660414813 0.844978182274357 0.5843421931746496
C -2.9152968618790807 0.6421314564160836 0.8741707388468013
C -4.074276648434885 0.40971253818637177 1.2141171259809445
C -0.21493396605822274 2.560311546631136 0.3052762228528089
C 0.1279245328817737 3.1913209121552257 1.3715660344753053
C 0.40870095678810064 4.076206431902592 2.3442752183323714
H 3.953842680369863 -3.887783273070398 0.5044404425765461
H 4.955628966576504 -3.58556858831787 -1.1602284578464857
H 2.0431258103085614 -2.713640056664913 -2.792191243580613
H -0.1205167587310633 -2.6094311275245414 -1.1349492189833221
H 0.9484289382965929 -0.2610550909718306 -1.9348409135851588
H 0.10463858528833407 -0.6082022832624144 1.0475634416591293
H -0.6726575809584232 1.2923577543677498 -1.1169620894759213
H -4.6380372576899305 -0.3800486076376383 0.42595028569029825
H -4.108847969378778 -0.44878636083963275 2.1166314530171295
H -4.91495610553743 1.0698430846421645 1.4576940136579537
H -0.7073065489365857 3.3214474018994555 -0.45518115496368233
H 1.1785655592536137 3.6809248265137313 3.0209869671286937
H -0.13776182978210677 4.944126380539668 2.342515625035451
