35

C 6.512921478514733 1.530840791988276 -0.29783840609079865
C 5.546432067738737 0.6978410920365329 -0.0396280723747917
C 4.5104644828765466 -0.08616278738827397 0.05461750749753977
C 3.509271072738838 -0.845056547275126 0.4060290666588056
C 2.1666170181103106 -0.27372651122860253 0.4028304567616004
C 1.9371643051957477 0.5202125240903206 -0.8344647241150648
C 0.7014438857463181 0.8894739076506339 -1.1320338090566022
C -0.41563986982785106 0.5036886307964693 -0.22845015687339984
C -0.1591358056940205 -0.891720604550511 0.20872412244754457
C 1.0800793227931131 -1.2574723268440495 0.5095968299795802
C -1.2522342692595465 -1.9001164963530797 0.32105586031253097
C -0.7050656505582458 -3.318469421707332 0.20766462781074072
C -2.2253938523788417 -1.7296648681735092 -0.7934647295202549
C -2.424023859958555 -0.5279023494470899 -1.2849655215509124
C -1.7640056219139382 0.700574788734121 -0.8331439101970993
C -2.6315279898766386 1.346973674137625 0.1917846779792016
C -3.5087099872396843 2.2786149119384445 -0.16303979958188866
C -4.3854649078968135 2.937761699347992 0.8434569134669506
H 6.929649439396563 2.126426638163846 0.5004213055792215
H 6.935092807288124 1.6679210817181387 -1.2831861762719898
H 3.7042278880241097 -1.8725594079970198 0.6885295554314259
H 2.768171171342747 0.786086163186885 -1.472262668393364
H 0.4858205895412216 1.4672209422607423 -2.020425699619727
H 1.2456455987757034 -2.2987919327660333 0.8317360055192454
H -1.7027294498052592 -1.7858552225756343 1.310257042783155
H -1.575166127602643 -3.9565904424040923 -0.05594056963331926
H 0.00918525985142497 -3.348154204152408 -0.6264005507577276
H -0.28821792125002943 -3.6490592479016115 1.1738276336915783
H -2.7784707074064525 -2.590611967245515 -1.210172983681509
H -3.144432309508999 -0.4381289839102539 -2.10178542851284
H -1.6724282902945646 1.422694710194482 -1.6711762073989105
H -3.5979817386727797 2.571628162313317 -1.1907991463452643
H -5.447149666366336 2.636295011211646 0.7394101413475634
H -4.282792965621136 4.038121608785769 0.778801005674845
H -4.081615396802027 2.6476669833646733 1.8842496292044537
