25

C 3.589897847103615 2.557395671349828 1.0288977919238849
C 3.3702245367830623 1.8611342619895335 -0.0625825250014947
C 3.0997131154404713 1.1058451814097774 -1.0915800914744584
C 2.2982172270399532 -0.05060255757882212 -0.8600978245149633
C 2.3363957780774895 -1.3145437812178518 -0.1720458327014344
C 1.9476410074337223 -2.6109557811976987 0.33181436265434644
C 0.5834437404455269 -2.6354312834792832 0.45505642713522965
C 0.16003666843346823 -1.3227413839597582 0.003984349222121396
C -0.8466220678062638 -0.67473642833322 0.4051468141623753
C -2.0056303298174796 -0.10984591430279458 0.7576728102566042
C -3.1472712511235716 -0.4913654791833936 -0.03798135000123653
C -4.1334078414597135 0.5962528229661684 -0.26731193996775565
C -4.21716263973124 1.6354444853886747 0.5467691844518318
C 1.1102287959869155 -0.8808322033616737 -1.0197169061170877
H 2.8709558724542767 3.3075216215398466 1.2264872036850654
H 4.455153097826728 2.276422522235721 1.5665479428026967
H 3.5228718586327945 1.45484514356693 -2.0071471514047845
H 2.636818368640233 -3.402951464168792 0.5623729463486917
H 0.03148536402473013 -3.472580732657175 0.8138221343166383
H -1.8696504488183023 0.5294968544248041 1.5753417506204788
H -3.636180639678015 -1.394363255645174 0.3781439617630092
H -4.776669698579673 0.49107331093279843 -1.1341045168966017
H -4.948417987223748 2.393308225288755 0.33389088512912163
H -3.5475962536929493 1.6864347129588622 1.3975162829376127
H 1.1155258796083074 -1.5342245489663757 -1.9715182157904703
