21

C -5.255332805123874 0.4426817517091884 -0.6795853373875409
C -4.1423829711550635 0.2786895279395704 0.00649600090915236
C -2.980211407710965 0.15630238571006735 0.6168889642991775
C -1.83864433589924 0.6338097331023346 -0.0866827489307421
C -0.8094391754358918 -0.19683201435260955 -0.1563676316575028
C 0.17853803915373018 -1.0580716916607942 -0.09484803622747978
C 1.0519026755126866 -0.9270217826194449 1.0688599667568972
C 2.4530049010784647 -1.2815881939119358 0.8123752542213164
C 3.3339606439375338 -0.31332897090467104 0.7199358580328464
C 4.1554254678756966 0.6504531543081092 0.38585454108398565
C 4.049060067174269 1.1460886818200628 -1.0255759223004284
H -5.741262825363943 1.3652404120894344 -0.5087383546406509
H -5.5055758129028645 -0.3718416727869749 -1.3055047977760328
H -3.051530991176355 -0.2919034538400232 1.5729775479382984
H -1.6542438412809282 1.5502907792635934 -0.5746440457385489
H 0.20717072730986527 -1.735169919366484 -0.901177237952116
H 0.6083493086249981 -1.5193698913937865 1.9037600124093603
H 2.8198068496728834 -2.282603350143832 0.6894793111811426
H 3.016060828511966 1.4815228225015546 -1.1973851737701897
H 4.342295319928581 0.2824681156433317 -1.6660731667417161
H 4.763049337269295 1.9901835768934946 -1.132377830182415
