20

C 1.3880291629178778 2.1675568255811846 0.2659498950493435
C 1.0609087119076617 0.8931861686823023 0.30468264424149794
C 0.8015698242188102 -0.38594933945875837 0.3402401945402357
C 1.900891076621953 -1.2718615561283833 0.694268322979974
C 3.09208557933193 -0.911948996741047 -0.19349979619645985
C -0.5552915796142208 -0.7104575070309129 0.01675466435390535
C -1.5768540501240995 0.04102818466359752 0.3747749164020532
C -2.934991753125766 -0.327689124399609 0.024450517416753338
C -3.9288590841936304 0.4499294555332211 0.40088022805407475
H 1.7310098315778952 2.5009924508263564 -0.6712898594373392
H 1.2552341114069088 2.6622586803345056 1.1868680425529854
H 1.621359110852038 -2.3199777675869897 0.4369134268564725
H 3.8886809063716536 -1.6708493865305534 -0.10835147770286481
H 3.463727799996888 0.09057779658608192 0.12395418846758367
H 2.7896836223384383 -0.8836287728331808 -1.2595100141669318
H -0.7622724461521876 -1.607873938508411 -0.5448066318990893
H -1.36836366641732 0.9460139700309329 0.9410620042623664
H -3.1516993091254673 -1.2153949012335852 -0.5322217936440392
H -4.9398839278882765 0.18436818765137272 0.14547955971280996
H -3.774963920901007 1.36971957056189 0.9710113675048768
