16

C -2.989975892367742 -0.20269174420364114 0.1373850882824593
C -1.6658623394232805 -0.1874684382169056 0.16619638507135628
C -0.3871725768659308 -0.17723124230736742 0.25369904923171677
C 0.2863089689472281 -1.4419674473245065 0.0030341953728600093
C 1.5351439956166162 -1.3296574195094006 -0.4955778166176164
C 2.081224973385715 0.005298096981906091 -0.7252793761477221
C 1.4210112419398586 1.1308482530330528 -0.45937513170176447
C 0.5046757351449319 2.2841173823502676 -0.08530514801465194
C 0.2726543865685497 1.0578387367651985 0.5934305790299974
H -3.438191588051926 -0.4452633220044254 1.0565258525079058
H -3.369178630903041 0.03365483485456391 -0.8139277133378674
H -0.09264059421091916 -2.4132015703984484 0.16641998000540073
H 2.144421843036466 -2.186249900456064 -0.7308313720337423
H 3.091464187409977 0.1454121266103784 -1.140188495814625
H -0.09036465840060555 2.7071865690981824 -0.9291959281057888
H 0.6964809481740724 1.019375084727186 1.6578721553897844
