15

C 2.835798414615779 -0.22906747952029877 -0.49160681419203495
C 1.537268821264193 -0.3710818289496213 -0.5045086157552954
C 0.2803973019385337 -0.3978912822930939 -0.21801931167106314
C -0.5455046540560257 -1.5550084183576762 -0.46731983904956353
C -1.904191483631228 -1.1585934267422768 0.008753376487379673
C -1.932435531016944 0.06453428809537293 0.48690085810225064
C -0.576683973754368 0.6022322481654068 0.37151126813144514
C -0.16049637289308585 1.8051539438375888 0.736123152149421
H 3.452102332440093 -0.5040474604279885 0.31046207942669113
H 3.2137951243969214 0.19442143500849512 -1.3713593724718611
H -0.6334310750906297 -1.8776355243140568 -1.5150320040412568
H -2.7619310702094633 -1.8078280682590566 -0.03738992144645917
H -2.767164633092463 0.5984600492344676 0.8912079146878724
H -0.8813288978415614 2.4851674865238245 1.1698337263194474
H 0.8438056969302231 2.1511840379988976 0.6304435033229754
