18

C 4.450511301426634 0.7416153534023183 -0.14104846299419302
C 3.2291741393945577 0.3307593814263654 0.11286415127430495
C 1.983034997750663 -0.05207306358787577 0.27589161676927443
C 1.088195146043103 0.13782607978615494 -0.8598751898436326
C -0.16572114331009524 -0.6186897507361957 -0.6339074463953676
C -1.3546220545807024 -0.03155967713483017 -0.6548413200271237
C -2.5798855139996517 -0.8274706051719151 -0.4238204180850283
C -3.6099711537560473 -0.06683606308452586 0.3782245447793522
H 4.6306730658876445 1.7544508257781823 0.09880435429227986
H 5.0843157168329345 0.002266762845820797 -0.5511356554024803
H 1.7786645048738745 -0.4588345099241673 1.2297721974012636
H 0.8691859486577543 1.216643913765337 -1.0339713841529705
H -0.07101349048829543 -1.6835537712130229 -0.44869738738881376
H -1.3954188865127286 1.0341066240776347 -0.8440876008621127
H -2.351352559107029 -1.8049292632108105 0.012647293268948655
H -3.6530445461363312 -0.48137512579445024 1.4111309441606983
H -3.316739853992176 0.9986736721529448 0.4947094319500751
H -4.6159856189840145 -0.1910207833769221 -0.06939649888843363
