11

C 2.584157284396516 0.11993921116868377 -0.333050613009265
C 1.6078136566515688 -0.7329334184518852 -0.2451331583442599
C 0.41283689983330135 -1.297206814437647 -0.13434646612955023
C -0.7815697976016365 -0.4669716346422198 -0.01094702632955944
C -1.6427947366738438 0.4399486081582283 -0.5876002560376945
C -1.9506525702133075 0.029017763276602142 0.7934995701175644
H 3.074966972866315 0.4368779742488342 0.5595776188614501
H 2.8885697048650636 0.4996540518916382 -1.2825727588801077
H -1.8875289007982294 1.0258822164843937 -1.4600899453531724
H -2.6850283090845912 -0.7583728832309942 1.0041316439442876
H -1.6207702042411183 0.7041649255343708 1.6214678318636955
