17

C -2.2768547548921525 0.7400684017589866 -0.8340867101387467
C -1.7757265779360403 -0.34659898819313173 -0.2757229898652698
C -1.1792783623628404 -1.3917955920395064 0.24283967529540418
C 0.26113818000245387 -1.4807499052466917 0.09149355392374688
C 0.9493961823865631 -0.32329837732792327 0.714463232908463
C 1.2297786617257866 -0.34057127491977895 2.0025015577753797
C 1.3306549848284437 0.8473103275267383 -0.0650959904113022
C 1.0715957514344507 0.9197914970537764 -1.3732393568248658
H -2.556641913118821 0.617749120073529 -1.8456930366158846
H -2.3245131573989934 1.5749613285383277 -0.18814459574285688
H -1.848954149604286 -2.0663043542021913 0.725841373350088
H 0.6529192216445394 -1.6342693775385573 -0.9065394807760566
H 0.955874929504291 -1.1927641787913894 2.583069893213961
H 1.7234650509796614 0.46923585014502983 2.492594840998163
H 1.8335078894321803 1.668185616070126 0.4377077685843456
H 0.5824605910306895 0.13461561271480182 -1.8903622570633571
H 1.3711774723442165 1.8044342943784222 -1.9116274786113396
