25

C -1.4593751452291654 -3.06634509422907 0.6552267731154676
C -1.9457114665271729 -2.133902918817368 -0.11415283457609567
C -2.1079823079066116 -1.1348879724328085 -0.9661617552369429
C -1.396008684102297 0.10827193706418692 -0.6143665285413602
C -2.2233528850335054 1.2826903469289321 -0.5124049991393561
C -2.910904559275712 2.2865683117284266 -0.4174043086068802
C -3.7477151674985936 3.4819266540299343 -0.31142145569541935
C -0.0954477908884164 0.13312372650934434 -0.40973290635345194
C 0.5445120464262592 1.417914662457112 -0.0608839121937583
C 0.6869056454134933 -1.0771503498403276 -0.5255262796425834
C 1.7602939486353595 -1.2711974321158732 0.21952025492811164
C 2.9753655427550516 -1.4522337732309583 0.6124038078203052
C 4.250422486797573 -1.4567614438998946 0.8404175632548918
C 5.554276769150719 -1.6366487299929646 0.8467870540593231
H -0.6695334214725912 -3.714377493671712 0.33277760989481
H -1.8762412908124642 -3.1669859844784054 1.6366874776738654
H -3.183007206609441 4.235107578831859 0.28509366309451706
H -4.719639383643635 3.2492763267492886 0.19316832204971107
H -3.997147448281139 3.8157431408732134 -1.3230135749324956
H 1.6072332611701592 1.3419869157277882 0.1600097966625117
H -0.03596517251975042 1.8731137589640987 0.7863364039182298
H 0.4293326789287258 2.1418252705525656 -0.9078091644259092
H 0.3619651954128901 -1.8185714246067541 -1.2442749832970734
H 6.203886414843931 -1.2011148231151176 0.09652089713277492
H 5.993837940253687 -2.2373711899581874 1.62377709776836
