14

C 3.1828199626744347 -0.09210674894921614 -0.002642762596127473
C 1.941080273853573 -0.5533363390188254 -0.04157159502571719
C 0.7012812304950687 -0.8925096817032468 -0.11755122953088017
C -0.23551960347238407 0.010915619897232292 -0.7674267884047719
C -0.6707529831515111 1.168602036735959 0.12120015713312159
C -1.641291359775831 0.10903169933954922 -0.40334543029394115
C -2.894388138151505 -0.30682264614653487 -0.4252225383299913
H 3.41199693901626 0.485487453248917 0.8515131455393001
H 3.7653356059201326 -0.37031136585258634 -0.8363288358424451
H 0.4379939556450684 -1.818464336721042 0.30260124615035155
H -0.48003884228156646 1.1110468477875866 1.2088786122699255
H -0.6618088162290293 2.1374970782009206 -0.38670570509290714
H -3.1488706182953874 -1.190462745139893 -0.979726102053536
H -3.707837606247351 0.20143312832121996 0.09618969672770754
