15

C 3.2214326803898876 0.5417493555609102 0.6441900962925894
C 1.9693771146251033 0.2646360720821425 0.3494666389267141
C 0.7443363736012812 -0.07880355451409102 0.13711608598292194
C -0.0923208259578328 0.6049957209382043 -0.855090526673795
C -1.4545998223416599 0.16835872325920187 -0.44525273025476164
C -2.5789083596645184 0.7583480182613649 -0.8418767562754785
C -1.2964507279091868 -0.979330958683751 0.43381813581643947
C -0.0003583505532265193 -1.1087380542072782 0.7653072827674622
H 3.3282336782203745 1.2558264443416556 1.4114261799814887
H 3.914757363468605 0.0051033437679410595 0.06573337799276203
H 0.10592833291037122 0.10939037823652806 -1.851175890470376
H -2.5928411728547784 1.6093216581143917 -1.4991554278880062
H -3.5115528041428505 0.3579174162030528 -0.48281876349306174
H -2.120654762615757 -1.5977521076838246 0.7420728993157104
H 0.36362128282416833 -1.9110224556764412 1.426239397979334
