39

C 8.658840102105328 -0.43196087306582476 0.4123516499233265
C 7.92057226928765 -0.051913040585688686 1.41878525236431
C 7.097826073323637 0.43262968261144946 2.3315159245136194
C 5.695994831235748 0.12704510469799754 2.25271565206349
C 5.292471521308886 -0.4043177260454801 0.8792776486755829
C 3.896474359347783 -0.7763632154121859 0.980065874378213
C 2.8169997688513537 -0.47674778445845445 0.44699704809684043
C 1.558260157766803 -1.1234532336231622 0.9114464845938028
C 0.38318107590801687 -1.0522996497607005 0.5510108336502543
C 0.11573505261198688 -0.19122117875133296 -0.6286103384061408
C -0.18820234272771805 0.5024040855176404 -1.5333974180535324
C -1.4699779587425397 1.0792631863820954 -1.6456784583353368
C -2.6744325314240105 1.134752181398568 -1.2683570035598175
C -3.649518041942741 2.1606360565791256 -1.8176005321259943
C -4.840469923921411 1.8344491380694334 -1.4750452589736491
C -4.8509468314898125 0.5549263202720991 -0.6671834260688551
C -6.044234746786493 -0.06408932922124778 -0.453694118704265
C -7.1177882705946605 -0.626180932111527 -0.2735134217883621
C -8.489293623654742 -1.3711584635135023 -0.03283378343874447
C -9.538252399250053 -0.8320338934805726 -0.5508538846733628
C -3.574743043463098 0.18604405294594853 -0.5573917018296657
H 8.962415492037476 0.35660252844109497 -0.2732647746813528
H 8.88411614989738 -1.509068609312186 0.3735678956233219
H 7.673684457682216 1.0153025378271079 3.044862416030234
H 5.292801422988655 -0.5145223799526322 3.096887499876139
H 5.41643139604739 0.36170696365264 0.12011682698850494
H 5.922950397279861 -1.3070165079606768 0.634649981337982
H 3.7897475559662026 -1.557649173367487 1.8588852463708179
H 2.730506849695299 0.24296033733654707 -0.39322818953441685
H 1.7756453718969594 -1.7857884863703237 1.7845327015025017
H -0.5029213038033132 -1.5033162370993762 0.7835054248632172
H 0.5918142605630606 0.6936843041692279 -2.347146483276521
H -1.3001734827425258 1.9655864018410345 -2.496626444585624
H -3.297294800970975 3.0546691578421656 -2.3394731659673416
H -5.741689913708708 2.447619599758533 -1.705113220938814
H -8.467423715098523 -2.2479891293596546 0.4514859225416614
H -10.459582831414705 -0.6209100647071033 -0.8453745997758974
H -9.021981787583245 0.26500471213790266 -0.9657963070890467
H -3.247541016361649 -0.6907033370994451 -0.062477751621653914
