30

C 4.810758486018055 1.8855591761078099 -0.11733158876787335
C 4.2021048037139 1.2095784342268026 0.8180202086082404
C 3.76877518385042 0.2737573937684497 1.6476592026171373
C 3.7029793052187387 -1.072458258551173 1.1734478998258295
C 2.503505338429187 -1.6120122310114116 1.14172011771441
C 1.2713785746259907 -2.0431198450547474 1.0691740663330558
C 0.5907950796295752 -1.7661562330644747 -0.1540930451167717
C 1.1059028645686406 -2.3714550488314825 -1.399084575026697
C -0.47018617697571585 -0.9982589701617862 -0.2170685888127283
C -1.001973711466749 -0.38815865924125237 0.9868965068715921
C -2.061896262597835 0.3773712230823192 0.9151600039861809
C -2.6997288038610776 0.6053164321815975 -0.4048329113108292
C -4.16197754989325 0.42506916846293596 -0.2211851215814878
C -4.711234685954657 1.6019305568915367 -0.46557501608884444
C -3.70050000144115 2.568742135451717 -0.8045812596358007
C -2.5057193119328414 2.024858853319217 -0.7806056096414867
H 4.240323270940147 2.2948641823837757 -0.9296973245611853
H 5.872275490019126 2.045299689214483 -0.10388323865785343
H 4.4667022287945795 -1.715211166585561 0.8383580669692406
H 0.9436175001049605 -2.543428947364418 1.9390344112118518
H 1.0931457461429046 -3.468370748295059 -1.2899982401887329
H 2.177385212943244 -2.0765177024551034 -1.5460516487383218
H 0.5043924036751796 -2.129400406561871 -2.290580779732114
H -0.9661915242169014 -0.8045291018025151 -1.1531019217502743
H -0.5084215530763464 -0.5743736616746202 1.9543712214932698
H -2.508679460224456 0.8624982512850641 1.7761243148369816
H -4.675448630591614 -0.5060039362907381 0.061813756959241725
H -5.772200904632421 1.771222270543726 -0.40788418844143437
H -3.925244283624346 3.605739244549142 -1.0444483966000855
H -1.5846386281850338 2.5176479054777694 -0.9917763227748647
