18

C 3.430627596305667 -0.2962752923560969 0.7809071009024904
C 2.4931969332561628 -0.613825304748755 -0.057041918708264396
C 1.4496950991711055 -0.9747781802084393 -0.740662924565991
C 0.3466257544668588 -1.4000844834567148 -1.2473475777886744
C -0.9397366958477311 -0.7443748511730718 -1.0344516323801762
C -1.0409504928040132 0.60775322661079 -1.556706779644578
C -1.0882783910890452 1.5769185735224869 -0.6669739489759892
C -1.1439299394764724 2.4787141977090457 0.28448874372105626
C -1.562017217532325 -0.9657277971050003 0.25412486082310043
C -2.8365355665426573 -1.4167767363717008 0.6813100635478966
C -1.9820730790277055 -1.1156625648856817 1.6177695620561703
H 3.612582675524529 0.7347433951689993 0.9942477554000694
H 4.030507094334161 -1.0540237578862213 1.266866280600138
H 0.3546336407568058 -2.299568565946519 -1.873549979260479
H -1.0835548793990786 0.9446738512892521 -2.5586600321622015
H -0.20087854284245746 2.8487431427234577 0.588611059678247
H -2.120587521237092 2.713382785102867 0.6193960102865096
H -1.7193264680167664 -1.0238316379886483 2.6476733564708153
