18

C 4.141331704726064 0.40590666507944556 -0.25814055944843317
C 2.9763593404449664 -0.049689473868659455 -0.6589194022793418
C 1.7460969290334596 -0.4630350221031652 -0.7397766960910571
C 0.5088341485202126 -0.8399514209060663 -0.8933112049947833
C -0.3645494965332904 -0.9121962455727011 0.2755170982651058
C -1.7374493502433883 -0.4690418207762499 0.05269671204181948
C -2.743352655826178 -1.307880925273537 -0.12328038971462535
C -1.998983049700421 0.9754840483178077 0.025172835666008624
C -1.049132468113529 1.8647268928042795 0.19239192424833607
H 4.283465001023105 1.4220715550698761 0.0841554944077943
H 4.995663688964927 -0.23317571480243932 -0.2614756549534123
H 0.16502877733982144 -1.0889620595508682 -1.8867572020465726
H -0.2445606652849336 -1.790822701527827 0.9032174668895123
H -2.60438505772965 -2.3895314099037477 -0.11205618842446921
H -3.7511212782041534 -0.9290634382613274 -0.28626017735820247
H -3.0147355368713553 1.3439804700550968 -0.13917854460196247
H -1.2744986719786677 2.9147531683979513 0.16653812722505634
H -0.03401135956700349 1.5464274328220575 0.3571920927672086
