10

C 2.575274407812067 -0.20802851171697082 0.076628433201826
C 1.3908304343434734 -0.43191086512481325 -0.4126304495386369
C 0.11714469138735568 -0.37142203249034395 -0.6428321751209995
C -1.1829614144329346 -0.43564124372085145 -0.8049697348743042
C -2.125555219595351 0.2882397350306951 0.11106019550626184
H 2.9398653640181123 -0.8000697192744904 0.9048464053719751
H 3.2368041652714186 0.5570161963907752 -0.3062549410847216
H -2.472318131903031 1.2112525686197764 -0.38076539176081675
H -1.5302248054825969 0.5606242119972306 1.0052376032394439
H -2.9488594914185127 -0.37006033971101515 0.44968005505997133
