29

C 3.775787172149346 3.0296000284113482 0.40612435918311934
C 3.3514841397702773 2.015351069643461 -0.30495132509072853
C 2.854030612054083 1.0041873684252165 -0.9661786645222283
C 1.539968471403782 0.5695584619376799 -0.5812654216952138
C 0.7017632883652849 0.15414787011909276 -1.4878182679360945
C -0.6631902760584537 -0.3155325281430822 -1.2400451699522799
C -1.4539381231462463 0.7206551539795795 -0.5067600835180659
C -1.2675907426153665 2.001257791452792 -0.8547411076884501
C -2.0161369057835192 3.0818434714006133 -0.1720379694888797
C -0.7280433926374285 -1.5835260450059692 -0.4803782609859882
C -0.2237791255644821 -1.6638780762811651 0.9122675016338956
C -1.2381470684950546 -2.6717514656876675 -1.0299156774463418
C -1.299313998469591 -3.9366859832358725 -0.26275312598938694
H 4.30584542730611 2.769058539995473 1.282382947139814
H 3.5312912574187334 3.981842920324682 0.010175037953337037
H 3.485598667211647 0.6172791823813676 -1.719032137799219
H 1.2042830580299815 0.5717722622863116 0.46109471375763533
H -1.153131164616581 -0.45160384633284495 -2.2372748054832634
H -2.155788595097818 0.47807929827105294 0.27763682763316305
H -2.7331147861549434 3.5879246197100865 -0.8753051493526386
H -2.622012037419164 2.695680259851215 0.6562573633921308
H -1.341174730276892 3.880207885055983 0.22167252976370283
H 0.8776981518649265 -1.7757531093655705 0.8679734588502159
H -0.49222414194929076 -0.7602376051651375 1.5133090267841465
H -0.6696686391693727 -2.545288120795818 1.4523512150570097
H -1.623092853442547 -2.6773235019412964 -2.043637178440821
H -0.3272065837367078 -4.143557600447833 0.23171747171401927
H -1.4981892673275454 -4.807260580958186 -0.9216928655723042
H -2.1220078136132177 -3.82604771988523 0.49362564434236744
