16

C -3.577355130956597 1.0875492804428026 -0.07987537211698015
C -2.746428177415267 0.07769619770002105 0.01162719126435626
C -1.8592842160128373 -0.8760177363995463 0.10737901285615707
C -0.47622368439278856 -0.45307114865733533 0.3048818827151341
C 0.48516592192084046 -1.5956593596576967 0.1443509472321213
C 1.7557642148878623 -1.3086845290954119 0.152180880340038
C 2.9980050523266075 -0.9796618252179943 -0.028742986379825843
C 3.4327836642116285 0.4517876586013199 0.14523298985685093
H -3.732832747323732 1.4570769246711373 -1.0599379120110604
H -3.9908787032471325 1.4089054631199456 0.849962680867346
H -2.2553405534865303 -1.8521688209705132 0.02922321513931848
H -0.21156312427086116 0.30844782587549696 -0.48438602088710886
H -0.3624992394383374 7.256385454251617e-05 1.2983672962878305
H 2.878980732760671 1.067395331648147 -0.600485250233005
H 3.1424522251850275 0.7440706213544095 1.168574910970061
H 4.51925376525148 0.46226155273063396 0.003414293237271826
