14

C 3.0296296003264906 0.5773813599680879 0.4760634301969772
C 1.913059093678845 -0.11811368010807508 0.4414989075518778
C 0.7806440072512366 -0.6376465920509143 0.12285019910654474
C -0.26839708626943576 -1.2493099137807673 -0.3359328594331739
C -1.5603288390467864 -0.5574386490231481 -0.4905774946611735
C -1.606136525726632 0.7809282306007402 0.1906771428834649
H 3.024998339685957 1.591896265402964 0.8518204916762613
H 3.976745022370421 0.18273372179894393 0.14156466978850613
H -0.22323639049038846 -2.2899977012562225 -0.6191671644557698
H -2.3519039153558317 -1.200147048639702 -0.004599202784157965
H -1.7907391558225374 -0.4362148436421033 -1.5749194934556998
H -1.328541711587964 1.5953538654499875 -0.5256055713774177
H -0.9581420342297134 0.7465851967727124 1.0774823314160018
H -2.63765040478365 1.0139897885074922 0.5285161794377595
