31

C 5.937949008619629 -0.8616994484572473 1.9070551770691562
C 4.9108335430679695 -0.23586689748964515 1.4134585370864505
C 4.078259183636528 0.4824173212670133 0.7191907323080351
C 3.2836776293357626 1.4241798754976738 0.29126798996597186
C 1.831885567595128 1.3903970343986471 0.5200213104610547
C 1.0654247108496824 1.2221567302086762 -0.7678604953035439
C 1.4877869362917593 -0.07017299314721874 -1.4277958719338775
C -0.37389371813179195 1.2560507422603588 -0.6380424154097621
C -1.2220495606753181 0.44329021913431627 -0.09401494095846126
C -0.8098067156960144 -0.774813576964306 0.5472418913713882
C -1.735376941447613 -1.5688875312868094 1.0968845746665645
C -2.657330521757201 0.7960974296178118 -0.16419500689521868
C -3.3951944582290707 -0.18570266181840558 -0.9381903646693993
C -4.700287123774647 -0.09433731204498787 -0.9324716865245155
C -6.002867624016864 0.08319939222700394 -0.8612023725278164
H 6.885632258423507 -0.4038890955690778 2.1481724823862063
H 5.842777914582371 -1.9209796391219633 2.0926061335119774
H 3.6727602295271957 2.288277428030029 -0.2625538274862561
H 1.5164164418083197 0.7635488045117147 1.3453134981340342
H 1.3518716410917266 2.049802082685855 -1.4868772837285171
H 2.139789072861293 -0.6936215742511977 -0.7636555087524542
H 2.0437884726487106 0.13971179363624014 -2.3891755314429273
H 0.6322213144642431 -0.7214054262128333 -1.7127314880231441
H 0.23473915996054548 -1.080050392086638 0.6041137294372346
H -1.4312743855715344 -2.496057317849225 1.5853449729346425
H -2.7843907771937992 -1.338278754257457 1.089399446088721
H -2.828511209864472 1.8076786442367243 -0.5943187029004611
H -3.07554075838097 0.8340761563011422 0.8754444900376607
H -3.026752163323883 -0.99344205168642 -1.527885070706273
H -6.473198872083377 -0.43603382456930945 -0.06829241901509162
H -6.399338254617694 0.7213190524258841 -1.6062519791814256
