15

C 2.2487673136713857 -1.338184840691952 -0.0044352702767094816
C 1.2094340150630967 -0.54870604907892 -0.23429075195418544
C 0.2157021904769581 0.25309196651972593 -0.508475016473651
C 0.5100775883064693 1.6723159355771267 -0.4652673576135461
C -1.037756176750013 -0.42790201075979284 -0.815472405948417
C -1.9233242067286846 -0.6538266644852304 0.38708205532261236
H 2.3468845471706627 -1.5759096620978832 1.0151066937415485
H 2.800727164624609 -1.5974781969409255 -0.860671991627961
H 0.3381988984683728 2.0677296132036593 0.5776496005643464
H -0.24244785129115598 2.187707865330705 -1.1333337825646743
H 1.4906621521900871 1.9816608963173774 -0.8268029742712237
H -1.5566178127525383 0.13301466759860542 -1.6127634166851958
H -2.6601834480260846 0.16493413172530774 0.43929397279792365
H -2.4655725265340283 -1.6197021671960836 0.21907825640376027
H -1.274551847889001 -0.6987454850217004 1.2689991759778048
