23

C -3.8930464616467395 -1.7699425371292048 0.5507017278261029
C -3.149527217127675 -1.0752620254601646 -0.2694683718377832
C -2.3384631926074055 -0.3953485916521531 -1.0416290888376734
C -1.2287437910860446 0.2119427820928885 -0.41551293894511426
C -1.1980412769805207 1.5036259605669147 -0.352128994425988
C -1.2257981533065134 2.8238053392845983 -0.2797328086339088
C -0.07634543081891061 -0.45574636918641315 0.18780369074691566
C 1.2469635372208736 0.10401952128574175 -0.22912847641707462
C 2.324141813126737 -0.7150112433673937 0.497650551914459
C 3.7088346955727145 -0.22937848900909277 0.14516857792508395
H -4.684397668559629 -1.2184084710610055 1.0002871982895303
H -3.6239572624370044 -2.7973997454320654 0.6747635278183446
H -2.640791417570873 -0.39526164741920705 -2.0745351443171183
H -1.6930148918287962 3.2057206204753173 0.5843295615515399
H -0.7705235704585061 3.2902497909568815 -1.1078605511243247
H -0.12395516863146952 -0.5714957007527902 1.2755828413725454
H 1.456676352711366 0.009366615826005136 -1.2954542559261635
H 1.318988072357225 1.1520437962588475 0.06848319796362994
H 2.1140259463733795 -0.5613201787261978 1.590787957097054
H 2.241602880743744 -1.784796569881274 0.2332505834436431
H 4.273060767657751 -0.11580666403067398 1.095928764295302
H 3.7130124968449856 0.7511606629625397 -0.3612676632226382
H 4.249298940451173 -0.9667568566021002 -0.47801988655649374
