31

C -3.6875755925751883 -2.737985995020373 -0.5848669515461925
C -3.478820373728476 -1.9344498893316602 0.4663667847420187
C -3.747850567491981 -0.7385015954731985 1.0206774283193276
C -2.7048951287867817 0.29190831005388174 0.9935968208616962
C -3.3021460754407546 1.5911389426905052 0.3480005403439675
C -3.4505823091935524 2.5939480382715803 1.1832351447370932
C -4.4802422435438345 3.2973972955046964 1.8252361293391335
C -1.7482774968534451 -0.052633878485470145 -0.18473740335331773
C -2.5828066942195833 -0.16356869270367366 -1.3595035855015347
C -0.562742904651959 -0.19393482777774262 -0.2622555754996386
C 0.8222906324952057 -0.3539265697247936 -0.3530096144399239
C 2.1537130654431222 -0.4940504923104339 -0.43584822563241576
C 3.2991773361215766 -0.785536230199516 -0.6391054016725709
C 4.480606261806354 -0.03495943472282511 -0.0556541288980791
C 5.595783751479151 -0.5853582878838748 -0.3608674416276238
C 6.938172341660426 -0.07336913382322979 0.037328976759832114
H -4.720464106512779 -2.914120406108253 -0.6535946285451709
H -2.863782020068909 -3.0730618029890175 -1.0594233446371002
H -4.7583091683524525 -0.6828167395475563 1.4370709585124413
H -3.545318609298876 1.6619114284602645 -0.633751946441437
H -4.666794490270676 2.979961629375809 2.813083558760714
H -4.898020964105418 4.076781778849834 1.2408509953260551
H -2.0704101429234667 -0.3838895397829044 -2.233110587579769
H -3.6141612605801283 -0.07945781084179057 -1.2589658123635343
H 2.4484820568475216 0.7555989151064797 0.030798616855510635
H 3.6773182478706183 -1.6466166768303936 -1.2968770999402
H 4.2863230118154725 0.7185452371989801 0.5542263509055111
H 5.630585251646447 -1.5081905999700276 -0.9249025583484108
H 7.53513896873918 -0.2757177921545783 -0.7404658936941689
H 6.83267109149513 1.0530467268164723 0.06796316091176242
H 7.182938131207719 -0.30809190664129166 1.0185047334125932
