8

C -1.8554430293265085 0.011170551108863362 -0.1638648955000345
C -0.6101731409403807 -0.23256733896802165 0.07576648436372631
C 0.6915145612492405 -0.28861081390451016 0.2664697015417646
C 1.8076974372309462 -0.8349577499070027 0.8212450090285314
C 2.0236560299632607 0.22148435086123225 0.0162130383022948
H -2.4370232960639684 0.6623258654251156 0.4481529870770714
H -2.3091002507192417 -0.4600100169797178 -1.0059053736312522
H 2.6888716885896033 0.9211651523441609 -0.45807695116706354
