40

C 7.57652202008234 0.26077354564579663 0.7447577210783514
C 6.5318856687573055 -0.17327322725662353 0.07433148554357245
C 5.452055054631346 -0.5361074474717605 -0.5619543029325256
C 4.308193069781128 0.3251260669398204 -0.41844762108401135
C 3.061755909463703 -0.09270029990331285 -0.29406429678934476
C 2.3647319792030834 -1.4004671725187965 -0.24984794666923374
C 1.0444098926515744 -1.4602563669661686 -0.10928617554516053
C 0.24043327867102784 -0.2592960337481876 0.005387242040744028
C -1.2065788786780804 -0.30977710960594906 0.1620281789222478
C -1.9073231317981378 -1.4374757866763224 0.20990604657766754
C -3.3476917421192516 -1.1294107079324895 0.37410549436555013
C -4.050953444152686 -2.1193141414751353 1.1988627917012473
C -5.134375648001509 -2.714399182944854 0.7337746417054244
C -3.2906716613327642 0.23123562157427324 1.0367781625595993
C -4.525952273714053 0.9792065615768404 0.8626119583206274
C -4.602558849278982 1.7480068001817692 -0.20424317605795222
C -4.584559813323718 2.485714561190164 -1.2959968208277666
C -2.1332699819598155 0.8561499451083316 0.2991103490929318
C 0.8438966111101459 0.9611559922566134 -0.030811803362419832
C 2.236494096520512 1.0889695923869156 -0.1772970853444722
C 3.026702919647601 2.233610023828534 -0.2354160286712701
C 4.3107965206633745 1.8032938295974454 -0.38386463533717674
H 7.644331729860436 -0.09765806731173479 1.7394143372918822
H 8.211492909809413 0.9121529785824437 0.2014660688658614
H 5.545334531158511 -1.4299838556235869 -1.114226260936936
H 2.9543044770408207 -2.2820160167685852 -0.3339591241882256
H 0.5462620289458677 -2.419639548029559 -0.07827035248808893
H -1.489066728276648 -2.4482658839810787 0.13914172084517235
H -3.759371607596601 -1.0488122342407986 -0.6565840643454479
H -3.658829373896269 -2.3394242032564727 2.179975196497375
H -5.690174454947796 -3.4587631418014517 1.3147256548167598
H -5.4798842677255974 -2.4532813845821617 -0.256129574133758
H -2.9832521017706024 0.07918482138354113 2.0895025209022133
H -5.39090671857311 1.0056097840819118 1.4676995322195603
H -4.951846103889195 1.9959940403054268 -2.158652120188467
H -4.204905262152163 3.4623847036532815 -1.1558971258076507
H -1.6339445075821963 1.646338746918302 0.9056319206725163
H 0.1871546648963948 1.8045515007867843 0.05780030600091544
H 2.7712101883302975 3.3051961289427356 -0.18263076763652267
H 5.168148999543957 2.425666567154887 -0.46152862533571987
