32

C -4.292977472774 -0.9880391154271069 -1.5048070917010845
C -3.006440748096588 -1.138940961009486 -1.2394840158156097
C -1.7574641776028457 -0.7580418180368256 -1.0899958802115521
C -0.5283516673124686 -0.7680077174806154 -0.649300920581194
C 0.15260666608121348 -2.054436289750432 -0.5669555744982772
C -0.1652329330068693 -2.8119289007407033 0.452562612089919
C -0.542209567612619 -3.494275346166026 1.497247222203502
C 0.16182036745286046 0.4282191724212691 -0.24024104858890646
C -0.351672034867453 1.7766453785191583 -0.25933539193384314
C -1.520438763828828 2.161423474626994 -0.6634472373469144
C -1.8788220184336146 3.5955080948303157 -0.6098333156523353
C -3.0517853007015012 3.996913028185936 -1.0133099205610423
C 1.427329634538074 0.27933764150220836 0.2272430084375869
C 2.0270041255616014 -1.010609989702354 0.301638891211229
C 3.21529268288282 -1.3150810171581462 0.7209035538684246
C 4.131439882898009 -0.2904991752600587 1.1962047086468692
C 5.350613281989698 -0.5912880818157756 1.6278494519648494
H -4.667463138540177 -0.9256765917461833 -2.515952980317886
H -4.968885434272987 -0.9281231858919882 -0.6649472510964555
H 0.8605159876814584 -2.4598389517530292 -1.2245723336336316
H 0.04029072404835411 -3.3215122563660007 2.381381337747889
H -1.3742269142696488 -4.132950534404996 1.3488149156089282
H 0.33319993331086417 2.5765906391789946 0.11539317817314694
H -2.2930402373288605 1.5337340271380682 -1.054082089051115
H -1.1641823135719132 4.288113447789208 -0.2375611038311244
H -3.7700789480392483 3.260162965009962 -1.3929187050783565
H -3.364126381280907 5.028839470121796 -0.9959214801671741
H 1.972364803819893 1.1657572328550665 0.5436613026343012
H 3.5006031118150465 -2.3620289157229943 0.7039417501869063
H 3.834699708475013 0.7294863918042581 1.2053512824500516
H 6.029160547011181 0.15856649146061214 1.9788073445871524
H 5.660456593973638 -1.6280186070087632 1.6216657802537724
