22

C 4.635572794648137 1.0588667719330125 0.6426221596893894
C 3.9478348165134216 0.41189472515120784 -0.26200381948761003
C 3.1106162146385588 -0.0047478659681590915 -1.1682876084467666
C 2.226536080155464 -0.6700958323015894 -1.8567002026363324
C 0.8180226017147549 -0.3168464751957172 -1.745995448437305
C 0.029304007432014622 -1.1142553779689226 -1.0525794121809116
C -1.4047143359099907 -0.7292198645056074 -0.9559794880458604
C -1.5767461744016573 0.4904684752446461 -0.048899449538629805
C -3.000411908580222 0.7987915709614359 -0.009353635152985259
C -3.4523562242415013 0.6723987930863693 1.2086553931185724
C -2.337029036589948 0.2689692104027166 2.0478037277453005
C -1.234503447921929 0.15614086670025507 1.3402175791134898
H 5.352671416717941 1.7755022456952532 0.2950984181188878
H 4.461235185830343 0.8538933606913333 1.6710314705249485
H 2.469793543396388 -1.4874645411688905 -2.5220168459141044
H 0.4150991096408865 -2.0035041994634946 -0.580095143491831
H -1.7622145681187584 -0.46063194348230724 -1.9726570204766265
H -1.984967573644849 -1.5780350011708517 -0.5388609744646223
H -3.609586721633034 1.0916917823668104 -0.8577198441566447
H -4.496464397582287 0.8381547551542772 1.562135453643532
H -2.359937755046696 0.0743963845536764 3.1209295249577145
H -0.2477536270171402 -0.12636784071552612 1.682655165518375
