15

C 2.7318844015684123 0.8986388979253274 0.011380525458617488
C 2.043227316213991 -0.2128667791753753 -0.1001118681578431
C 1.2827590194110574 -1.268709395588848 -0.22843396430526766
C -0.14329544268121497 -1.0202304114561778 -0.4367201536949292
C -0.7970587353198095 -0.24016084981549862 0.6052710350601251
C -1.8650889478782136 0.43654367173927733 0.24623908068900646
C -2.924696054720217 1.0808366858514902 -0.20500860740048982
H 2.8225949499858904 1.264182403605602 1.0122955002129348
H 3.1071515492057373 1.2914749271206507 -0.8947320269627548
H 1.7992601476615468 -2.185207822649677 -0.16500032860450548
H -0.2546063030359379 -0.5130116083411042 -1.4275173927344869
H -0.7126230871501682 -1.9850061409573105 -0.5462907872141778
H -0.5429582865429385 -0.1304875103636426 1.6241880081708697
H -2.7197748456892215 2.0492264531320576 -0.5730234107603961
H -3.8267756810288183 0.5347774789732411 -0.13412454029239648
