25

C 3.547963917444694 0.9707862792505256 -0.6307565141432762
C 2.7289528401653533 0.5153290173792479 0.2675851440412387
C 1.8555161758478793 0.0396928197216452 1.1169398488932478
C 0.6122229348206731 -0.44916401163577185 0.5342505220669549
C -0.3252348502111315 0.4328986003135606 0.2999781298488924
C -0.11621595677351239 1.865139281714451 0.618726686735909
C -1.6013450269563807 0.03745480328424595 -0.27469147073684835
C -2.6350758503703435 1.070872696406153 -0.5242031742833794
C -1.8130686141793655 -1.2182055820498177 -0.5599667649192663
C -0.8361130931128855 -2.269833437803745 -0.33564372361634764
C 0.45361976333181814 -1.8587189527042025 0.23405761273096456
H 4.227158548870978 0.26680157067404253 -1.0467553101296554
H 3.459980489271467 2.003172466854484 -0.8648411950372856
H 2.1434206423119497 0.061117267148193016 2.1254840760031737
H 0.827954206215618 1.999189982776346 1.1716764515850897
H -0.08368212193498256 2.4069678699280845 -0.34377754987406156
H -0.9784340641297826 2.26418205511936 1.228533665339035
H -3.4258506324652633 0.9381632075203714 0.2430894338306409
H -3.039456349518278 0.8640858821262458 -1.5558339978519262
H -2.2045728130508877 2.0896723263698824 -0.48241963133152577
H -2.801232349605298 -1.5114512848190653 -1.0033477177756158
H -0.6670689491147522 -2.8013698027650498 -1.334028296263046
H -1.2880574916354053 -3.0388234464675605 0.3679898881301729
H 0.6333265908807612 -2.488897169623668 1.1803217767313943
H 1.3252920538933541 -2.1890624387142608 -0.4323678899977461
