16

C 3.0269142326291925 -0.7520426460957441 -0.41913786376599405
C 2.3925505424601807 0.4110417643188123 -0.33770837540109977
C 1.405566963052629 1.2482950285629337 -0.155649146392821
C 0.1364695993977868 0.9425621588020697 0.5023017117367411
C -0.908459255531616 0.5018265569074222 -0.5033349044953398
C -2.27076690937806 0.15124163134210578 0.01947155902084319
C -1.3471621227272499 -0.9423739244895902 -0.41750644655634134
H 2.873663577704072 -1.3759691591231347 -1.283329767268281
H 3.65595227006554 -0.9698545908553965 0.4173442010832985
H -0.23662924997366355 1.8947663547333236 0.9778377059563298
H 0.22778121892166606 0.18648414295306517 1.306529306477702
H -0.8825068494948294 1.002143983683419 -1.5009209163820394
H -3.1759065616376985 0.3794114192859571 -0.5639253963619774
H -2.4013156831867684 0.2908967539151726 1.11124381417446
H -1.5882830617278443 -1.398565347866756 -1.4061372597343256
H -0.9078687105733901 -1.569864126073644 0.37863651594794157
