31

C -1.6847412016976258 4.706771079990535 -1.7551423637299777
C -1.713587982156306 4.015625369414654 -0.6568324539111521
C -1.4175900579525684 3.3212642130733223 0.43538147930667637
C -0.05642257099032491 3.0771835222136 0.7850112674828118
C 0.46984407919101023 1.9106389799890369 0.9703891279443106
C -0.1938273758216789 0.6540420920871293 0.8643321959823903
C 0.5690441279046226 -0.4291795442529512 1.1036630198044872
C 1.2225464610511285 -1.5246507690539897 1.0653343237968511
C 2.0256972651759773 -2.5292453890859457 0.8997140188815868
C 3.217785184523901 -2.648144240690444 1.7282835841802697
C 4.370032971907566 -2.2535066357021374 1.1893264083857171
C 4.469642377570713 -1.7132852565185173 -0.18799341825759405
C -1.573708995474651 0.47842307009097673 0.5305195914523518
C -2.094239370197336 -0.7557526855773016 0.45967635614451147
C -3.4667326952989255 -0.9207340419485281 0.12718970221395481
C -3.742495316755751 -1.7426473537845797 -0.8584749532556288
C -3.924926735171529 -2.5840302364779624 -1.85902313867045
H -1.6691385680346054 5.770391265919218 -1.702177828270569
H -1.6738644194225483 4.212932737786757 -2.6987979599113996
H 0.6216120217991459 3.9544662558928 0.9124001703499702
H 1.5622890594269259 1.8617230823579618 1.2449980283193318
H 1.837026870766357 -3.3025396572810646 0.14835647479929864
H 5.305062801909252 -2.316137426080236 1.758679870223153
H 3.4767590895142786 -1.2976823817703789 -0.5122928742130324
H 5.2543456190053925 -0.9265724735179723 -0.27128763757814267
H 4.7683061963092035 -2.51651338171359 -0.9025284778288287
H -2.231034117717168 1.2677198847077231 0.3303435161159493
H -1.4303983728788552 -1.5766218037376774 0.6629720674636709
H -4.328241991977936 -0.47199910387081245 0.5618690805698632
H -4.048647461994925 -3.5904048004247215 -1.5610367777521037
H -3.920396892512821 -2.13153437203482 -2.812852400038397
