17

C -2.48477382965933 -1.3743736857304312 -0.46745422155121025
C -1.5200221231032192 -0.493194613573746 -0.2513177944966463
C -0.6245393506773226 0.41212982888173116 -0.007685600014980686
C -1.0667363314817713 1.7307087908602072 0.3732199731934061
C 0.7430441821932695 -0.07058789098564529 -0.16509044583083213
C 1.6569585388745913 -0.09658934807584468 -1.111713477290839
C 2.6084216275355003 -0.7765696075111915 -0.24484933710549744
C 1.5974840857678763 -0.7538151119784088 0.8193041335615009
H -2.808664001620075 -1.3943005330599714 -1.4652623819285704
H -2.771367404996692 -1.9110337987950226 0.3903488740674645
H -1.9248284129216342 1.7669070328031953 1.0671828872657447
H -1.2861275137475108 2.412067548415505 -0.47915754097271307
H -0.22312188909190417 2.2395059182498116 0.9275159398960666
H 1.6623823637471984 0.2666250618489048 -2.148250233517303
H 3.513675632161197 -0.15155849803438673 -0.04573472553146329
H 1.1458586113657048 -1.7248060301488781 1.1202090271870795
H 1.782355815654481 -0.08111506316585616 1.6887349230688666
