22

C 4.277866593907942 -0.5432939208721335 -0.43417014417155747
C 3.14461040427163 -0.4991611320486395 0.21889029079781666
C 1.9898148121099044 -0.39776297585063314 0.8178094014948293
C 1.0485449408132193 0.5863340823958645 0.24387587410314088
C -0.04403943463904009 0.9811064699829961 1.1665635763213467
C -1.2423721076366463 0.3694762594316723 0.6236163987063174
C -2.4011488386787647 0.192159620563007 1.1626529074715974
C -3.5553675334788006 0.19285505844554499 1.7481018196402256
C -0.9146634461874048 -0.0319118873620829 -0.6925133573291105
C -1.8786332286643088 -0.5365923513348116 -1.7375344062686378
C 0.3709086437229838 0.07227048948009303 -0.9579332676345537
H 4.309662402098086 -1.2384594783215415 -1.2369983935144304
H 5.027830905770571 0.12269431842628899 -0.08210717885238117
H 1.8551416394081623 -1.0317265921552465 1.648527649546717
H 1.6329206747787155 1.4999475372382796 0.002169418466094412
H -0.1099540001592076 2.063066308581007 1.3709267055734762
H -4.226475940125699 0.9832052072916023 1.6328503127445273
H -3.7691487315422796 -0.6403384629002643 2.3381135689824575
H -2.0323290526009443 -1.6285684288145637 -1.5994582454413553
H -2.8550924811809417 -0.03761189234118791 -1.579092692796274
H -1.5114336632361234 -0.30745077696244344 -2.761206154396881
H 0.8833574412533955 -0.17023745287248704 -1.8930840834583353
