20

C 5.450585948511392 1.3630112183981553 -0.5815331923292332
C 4.255557805163547 0.8430655013008211 -0.6271410152482646
C 3.1070483473707635 0.32108846327464585 -0.3437727068490347
C 2.0290647285951673 -0.18453892978182113 0.18183832689381152
C 0.8784102857797932 -0.5225562758883883 0.6619765498410374
C -0.05444837846905955 -1.290492707340966 -0.18559562828102008
C -0.7485288839426726 -0.3401489656489053 -1.0658262461829093
C -1.6402870457352048 0.45153361385604796 -0.56101155778072
C -2.7053644289473673 1.0759715024396233 -0.07263887845006563
C -3.9348806569214467 0.29718989470074175 -0.05148518343068407
C -4.487644366324909 -0.1724555646346891 1.0351664074196045
H 5.566193672033948 2.36177977157467 -0.9306590046745683
H 6.321747636564797 0.8445627725343593 -0.21373442750293423
H 0.611176627129938 -0.24678410141231782 1.6606390107788545
H -0.8203773873112153 -1.8307548389395418 0.40450436513867516
H 0.5254594702667282 -2.0532932325970084 -0.7456461854079304
H -0.530271368053925 -0.3000804345619108 -2.1016950415397075
H -4.392985696425872 0.11464037003620989 -1.0135119577881861
H -4.039336469549988 0.004897024475024606 1.9882489008690345
H -5.3911198397343805 -0.7366350817848158 0.977760429530181
