30

C -6.719181211971848 0.3587174080106383 2.388509835149529
C -5.772520845272024 0.33513465817818067 1.4803031109637825
C -4.782318938500147 0.2631054813960921 0.6223227731063261
C -3.6949913773981318 -0.5981264121377798 0.9850939118143628
C -2.6073302530996543 -0.08991339253239432 1.49195951017922
C -1.4368543762946788 0.3827669882573423 1.8081699817955346
C -0.3454713000056985 1.0768392895851182 1.9582278590744353
C 0.8499574496516256 0.7045312705985458 1.1980067222318234
C 1.5939640666055646 1.9498708760247192 0.7613073853267092
C 0.4802810896521272 -0.16310813446306585 0.08134419399539145
C 1.4134993860009535 -0.7845873923645025 -0.6211158343334494
C 2.83294911891107 -0.6096150835441287 -0.2865682670457673
C 3.7686427881340756 -1.2235411353885939 -0.9796750283558561
C 3.4835847865218486 -2.0988969105896005 -2.0994296738195652
C 4.074266580152257 -1.8081177773437518 -3.21858858009892
C 4.705584477892564 -1.4471281014683144 -4.314852586964384
H -6.606045127238976 1.0988919881692751 3.1351756679067826
H -7.479152517537809 -0.37450499207997817 2.253448853940431
H -4.91321858175205 0.8587961998833997 -0.2421680341382565
H -3.7778585959591053 -1.675857446083004 0.8371466164275003
H -0.3205471584403747 1.9181830210076838 2.635643669315861
H 0.9016129034978729 2.8268986792335475 0.8719332669016969
H 2.425903822794691 2.130719615388187 1.4538997299103869
H 1.8684668723853184 1.9121340684416452 -0.29727346503286406
H -0.5468279658675227 -0.34088786467347476 -0.22481995122855006
H 3.1161828728560126 0.02513768331050262 0.5318301312198744
H 4.79659278239448 -1.0826024527949687 -0.719568286625108
H 2.8559518349483017 -2.9457724834110173 -2.1255300759897042
H 5.658647995126319 -1.8860175517193034 -4.438812312134793
H 4.176229421855198 -0.7653727789033088 -4.925921123450569
