22

C 4.371133156840779 0.7971972653242667 -0.023036583802243465
C 3.878255307892021 -0.2920008659779379 -0.586114470856424
C 3.3272498849089382 -1.3704874338915494 -1.0902549490215536
C 2.113541381008834 -1.8075334068518003 -0.46285381469241277
C 1.1101524157220277 -0.9965876609599438 -0.27166579950189945
C 0.07654211032472799 -0.23754512955744717 -0.09818409909665522
C -0.9986766309419915 0.5257897226031002 -0.19442677807232042
C -2.2989333596844936 0.010523225012834382 0.1745669493013567
C -2.6929716005734585 -1.41437144245784 0.009625387413099661
C -3.1998587946391255 0.8278298596443208 0.6863997932712741
C -2.876132485350586 2.2626049890532873 0.8795267054738904
H 5.043333497260579 0.6100472510262912 0.7702019884805218
H 4.02179636401197 1.7006048057469247 -0.4463488188995484
H 3.8545966618926357 -1.787187137162351 -1.9066586927329614
H 2.042044228698736 -2.842076343633781 -0.14405393363365912
H -0.8338200802332819 1.5319631130686775 -0.558706846313307
H -2.6804851060821084 -1.9247012201809917 1.0143499932299889
H -3.7699023633804543 -1.495622819917176 -0.3213653599953475
H -2.045254221264505 -1.9484428908927889 -0.7025576006534227
H -1.7998648151680117 2.4054595180669494 1.0121646292740707
H -3.456595934862179 2.6175704640446837 1.7561527475620797
H -3.1861496163804968 2.8269661378922275 -0.038557404381809865
