22

C 5.607093854733182 0.5300426475332124 0.24606024363464485
C 4.586112861340457 -0.30363768931124974 0.2730066928923699
C 3.5401407679404975 -1.0917266836653243 0.23974164699012393
C 2.538611282645317 -0.7846152691914366 -0.7213062270803795
C 1.294557744335103 -0.8403142763769089 -0.302344990288523
C 0.09209905902865372 -0.8421379084659214 0.23036888562270477
C -0.33049419438526506 0.3891924715141976 0.8063042821958956
C -1.5055647518698752 0.8327322542803682 0.40778157694244616
C -2.737623281527237 1.1427661451562232 0.03893355436170897
C -3.8047677926141827 0.5874494208617941 0.8556667884653927
C -4.809319750720317 -0.16849203266136228 -0.011823647888566905
H 5.498978190864724 1.366987585636238 0.87886414538852
H 6.38594998137965 0.2411617870303892 -0.40514266752835665
H 3.555225751204199 -1.8809146318849448 0.9408569762644209
H 2.620931518519214 -0.5115798167253396 -1.7378457533349057
H -0.3984478869681171 -1.7752150742469275 0.15491790384421583
H 0.1357611755186982 1.023984982004595 1.5102469649093582
H -2.762841208044367 1.7605626611981338 -0.8138711588308963
H -4.348702711709464 1.3365058277007489 1.4638864314503648
H -5.766450679898039 0.3980921672031779 -0.0261966576300172
H -4.94782370254924 -1.1924201198395443 0.4029670708499966
H -4.443426227223701 -0.21842444774941167 -1.0535725903916078
