16

C -3.1503170857608502 -0.27895095813133386 -0.14022834760297828
C -1.8608556165001477 -0.18758138134796354 -0.3473021043629237
C -0.5801777327161386 -0.19980028960281018 -0.1507605826660684
C 0.055577145250261445 -1.4048464548155837 0.31593639091498793
C 1.3381771785973446 -1.628054558754377 0.5797698096770229
C 2.2109084288978416 -0.7429630777409713 0.18519131387734494
C 2.372238374133768 0.7167974451133234 0.39071198612625796
C 1.2486671092843957 1.4667532946059156 -0.22224541079864885
C -0.016181736270357516 1.0598034306695805 -0.44884471071515947
H -3.639929248890263 -0.06327289830705463 0.7605327728372056
H -3.590993495185406 -0.5964360866182825 -1.0011543204565339
H -0.6221005483688895 -2.2286327663980416 0.4649402236589227
H 2.9905248956495245 -1.170152079465515 -0.42891628076840876
H 2.3841419067182508 0.981810674172217 1.4727216814652508
H 1.490024527280066 2.4669446262758234 -0.520808919977895
H -0.6297041021193973 1.808581080345035 -0.9095435012084
