18

C 3.096725278782319 1.5833061411882146 0.07045953431603465
C 2.6940365720396 0.3535675344654111 0.24784072149759337
C 2.2462742827889035 -0.8609339352583091 0.3888089139973753
C 0.9354094612896637 -1.1133037185379402 -0.15950529349850842
C -0.12651983488741675 -1.302494903685229 0.5679687033023686
C -1.4488637216754856 -1.5577093505288848 -0.03351259438706628
C -2.1465597359003343 -0.26364884732783916 -0.17095831627119623
C -3.424491611424283 0.3389917650446337 -0.16188265090013793
C -2.2535143731204195 1.2038756075733357 -0.3792917944946714
H 2.8383492747431527 2.260753297666436 0.849936150740526
H 3.6357767013487448 1.7628414502121994 -0.8351601662135764
H 2.900789180130293 -1.5265684298179911 0.8928847130604026
H 0.8490881148101319 -1.1435750005062424 -1.2446888196762291
H -0.006324702571648748 -1.2659056762568377 1.650315637308941
H -1.390712578829722 -2.058352617935842 -1.0187045895384528
H -4.484047236883512 0.15387638169914344 -0.05331870777340429
H -2.014603137922407 1.5765382168674167 -1.3954317763463484
H -1.9008119327164497 1.8587420851381893 0.4305664191678959
