23

C -4.86449499402041 -0.8961946757979544 -0.9764309174278369
C -3.6202673146558104 -0.49747369224808363 -1.0148664987923484
C -2.4586663703644125 0.04405037510487678 -0.7323068006784361
C -2.291923704103133 0.8410098868715339 0.5180192693077392
C -0.8118649341210292 0.8485078052729137 0.8434352395044209
C 0.018131834857676988 1.435850102016862 -0.19235554170660704
C 1.2935187995284059 1.0991325400794782 -0.17553635428345482
C 2.5179864818593916 0.6080503663145097 -0.1331545426448547
C 2.739851661188155 -0.6192659610557183 -0.8782300992382932
C 4.032810955869547 -1.2790237042175197 -0.4292996380735245
H -5.590720844929169 -0.28545988141847844 -1.4777485388176277
H -5.167535555740915 -1.7903046980080666 -0.4686537928426071
H -2.6389523676586686 1.8735079347801729 0.3936834055390981
H -2.7897408774446313 0.3317223845876562 1.3883750948231626
H -0.4785491407923894 -0.19896486232310648 1.098419088778802
H -0.63589756028106 1.4301383252777493 1.7961360208018602
H -0.21634160809958866 2.0975075257471185 -0.9760054747865251
H 3.170492509805295 1.1936113211245898 0.45127924430092287
H 2.881460020657444 -0.4117304337435041 -1.9766099256279257
H 1.9418578350898772 -1.3759911193570318 -0.7722078653976796
H 3.781783657330411 -1.8442210099713228 0.50636643883558
H 4.829671760575831 -0.551555645837176 -0.2373905778805523
H 4.3573897554497805 -2.052902883197939 -1.185471301252187
