18

C 4.729818351043766 -0.1684291312675016 0.539231100053117
C 3.4519394178857903 0.052501946021494425 0.30949317662078357
C 2.196357355826808 0.15770689225733853 0.05281575449320757
C 0.9806231452862567 0.012994314449846594 -0.4451472579609019
C 0.15474668012617257 -1.1095947587489616 -0.028510109732993078
C -1.1428895784463209 -1.0874151791394349 -0.08814878403987392
C -1.839384736614341 0.11173929284409882 -0.5949687535771866
C -2.665303714035049 0.9542481802706239 0.3398479406367105
C -3.3331500827805445 0.017535654225930133 -0.5935997464138456
H 4.996295430919215 -0.8537371666107648 1.3456532062634599
H 5.513862915508562 0.2855671669369955 -0.019379177752186817
H 0.65221877644635 0.7541745647004473 -1.1547325499933616
H 0.6403808500047509 -2.005164132258775 0.3486208669055723
H -1.3623284883067046 0.6361650494462867 -1.4533683743201757
H -2.7390916850247518 2.0487343778350104 0.17505418597566264
H -2.58085330831564 0.6625638910576148 1.418247786566911
H -3.839289590564613 0.41752112047798745 -1.4905794691546315
H -3.8139517389597355 -0.8871120824982139 -0.1819713916160632
