33

C -2.8691580486654296 3.9355788350232515 1.426892430867771
C -2.8605904425779403 2.7760494746024853 0.8615823135338672
C -2.6802257848329227 1.6771772031174321 0.21974487090930006
C -2.4131178183983093 0.6501963697424676 -0.5547079566133736
C -1.6378168335999292 -0.4527803587727499 -0.03738320376712685
C -0.3626577982010926 -0.29950964437254685 0.19301518734550155
C 0.24247540879717147 0.9803367407191711 -0.07833933575269386
C 1.3972286864861747 0.9423484629014748 -0.6995260902374825
C 2.5614726712989073 0.8080290326241668 -1.2725550884261654
C 3.6728190385649597 0.6747355795807709 -0.3681872773782815
C 4.785921237381193 1.3359503540165407 -0.5575602361652975
C 5.90423587916077 1.1723423997088098 0.3931046804055863
C -2.2596661663911943 -1.7587168249226086 0.2385527787744697
C -3.5281955376991117 -2.0842304968129843 0.0639221625088439
C -3.7508280109323575 -3.46306274554392 0.4501136732759959
C -2.615537279936995 -3.9780166904283973 0.8606847474425932
C -1.572466254324309 -2.9541656963775424 0.7657943589659977
H -2.669821088278935 4.0690578392957395 2.495765867510972
H -3.073533393124963 4.864949113919613 0.8902847708729479
H -2.750560465533108 0.5866095736345122 -1.5803824607452492
H 0.2194071150056762 -1.1490458777400199 0.5881689420080723
H -0.09247407871639265 1.9507273313185287 0.14332552751370264
H 2.5458970995821724 0.8121435878522099 -2.3283085149515124
H 3.577000158000814 0.003545189528738363 0.4946090660100414
H 4.895033176221237 1.9982937937378993 -1.3995623006184899
H 6.845873330247138 1.1384618277439993 -0.19952833907518264
H 5.9434849158056355 1.9864581706654514 1.1446636938982795
H 5.847092192167255 0.21925923025562308 0.9678034000668762
H -4.26409156768684 -1.3802675674751768 -0.31895465620284585
H -4.683009922992153 -4.027004661755461 0.42419937167416594
H -2.423876614948914 -4.999621070442802 1.2247755626570012
H -1.2068922092859118 -2.765860906431298 1.811846308085252
H -0.723421592592389 -3.269967568912821 0.11558403726390566
