34

C -6.087969595793667 0.7394239292223301 -0.7787119607370222
C -5.16000731133562 0.6533034547693669 0.13958109249702041
C -4.19703123916091 0.5100915590921383 1.0186502262985548
C -3.190463811545465 -0.49971204598329877 0.71247096095238
C -2.4150456028766896 -0.9898386650208333 1.8946500149584968
C -1.014218697167541 -0.4823825391807048 1.657549868281071
C -0.934873455981181 -0.06169012756180035 0.22941409245413186
C 0.10510181968259724 -0.7666649351113217 -0.5105304412782679
C 1.3419281783337855 -0.5187439438796477 -0.13948881959030413
C 2.5477590776251327 -0.13373006996893716 0.24279564827346334
C 3.0724555052956255 1.0067073488582146 -0.43389995856956615
C 4.337252391933371 1.0359050544947892 -0.807076634145682
C 5.290545179003706 -0.05920868749145744 -0.5716293518152235
C 6.655777710032972 0.4793985172671405 -0.180621458224207
C -2.260574017789166 -0.17060454353023494 -0.3512005013225737
C -2.550622233393251 -0.0028987275546463486 -1.5987548465539383
C -2.8596936607835204 0.06875289922729377 -2.854352701375797
H -6.922575709952789 0.10912383642811335 -0.6270999523175855
H -5.87983946535245 1.4295719839624677 -1.554486183296583
H -4.268281990340303 1.1537803505217252 1.8553561088174149
H -2.832421280996301 -0.6444253877690309 2.8579049806398884
H -2.3932566543582405 -2.102999831561008 1.8839439373043199
H -0.7898361924353544 0.3402160525627437 2.368700766124516
H -0.26226144494680226 -1.2770790281086644 1.8384821364564166
H 0.03369164447460609 -1.4526195872269512 -1.3073660128444906
H 2.9503059155369065 -0.7369046988274032 1.0062153956427882
H 2.434509238584585 1.8514650421795256 -0.6432048658063226
H 4.901915227444637 -0.7785370110925487 0.20666777867252523
H 5.361688111630864 -0.6749884231739107 -1.5015512257283314
H 6.6483098067466555 1.5838995439053918 -0.09051327156033662
H 7.393421407588132 0.1171651379173768 -0.9190990499224171
H 6.910805727933913 0.04952374545335485 0.808871098761905
H -3.129248872280135 1.0048040463945074 -3.226839918223269
H -2.8372457053581193 -0.7801042492141752 -3.460028962086336
