14

C 2.875087210538309 -0.06220161203504814 0.536221875734223
C 1.960326600988646 -0.14717750105602098 -0.39624526412349265
C 0.991719309452719 -0.24714776318130446 -1.269573211577008
C -0.3135488208322867 -0.5394862246532556 -0.741872320602263
C -1.0557875709815139 0.470995877997823 -0.32529614908086113
C -2.4136743935516374 0.22363497512881744 0.22929696178930278
H 3.36057345417345 -0.9767914511032264 0.7653642384022138
H 3.010839472356448 0.9039924579037921 0.9399422952205216
H 1.28602679864414 -0.09934308201204184 -2.274305902529386
H -0.7213637362318781 -1.5589975806985152 -0.6689139155916426
H -0.6928243556808588 1.4856169140441504 -0.3796223586130544
H -3.031441265215982 1.123491477644533 0.04202323940594916
H -2.8623154862259583 -0.5918225740566319 -0.36864642398571246
H -2.3936172174335315 0.015236086076946357 1.31568471062031
