44

C -8.527308070522363 1.8384813160726177 0.24965595876951327
C -8.206266886818266 0.8182199013104111 -0.5160593263003385
C -7.789313151327321 -0.1843651648239133 -1.2645179237072504
C -6.3800751041495465 -0.35089616276220453 -1.3774949864502872
C -5.6449507704877195 -0.5364978386150269 -0.2998865470944785
C -6.1199489506023745 -0.5975309109797712 1.0869048460502215
C -5.069521797576465 -0.7970872449812954 1.8710330241248843
C -3.853179022939562 -0.8796358818444975 1.0692371681014885
C -2.537179906105185 -1.0891424173119413 1.5853967474357906
C -1.6441028967595532 -0.16643217485584264 1.288849139198115
C -0.8145475851613335 0.7547412124810915 0.8666604709664949
C -0.1781677627406096 0.48440456851661257 -0.39654635358225804
C 1.1127226069508425 0.240095001460559 -0.4126759725844428
C 1.9048095031345382 0.23683358545363303 0.8054116132120954
C 3.196270865326634 -0.009004366267713974 0.7773431576887012
C 3.9044973900904836 -0.2937595320147904 -0.4936211662237716
C 4.487650099855628 -1.654384122365456 -0.4015357364013122
C 5.507374148160615 -1.8774758734531138 0.39682170175497494
C 6.101758047935525 -0.8323704948675196 1.2095302701516495
C 6.837368421462532 0.05516640344570691 0.6072627039019409
C 7.676926600039546 0.8482396630356164 -0.016664393385529743
C 7.842233839926107 2.088316154410545 -0.7469304983269748
C 8.99992823170059 1.19905694390716 -0.49617676244010755
C -4.190140342058453 -0.727544197742375 -0.19619747095615656
H -8.627089026987502 2.7586926097685516 -0.26892496052063825
H -8.640583492593768 1.602647213922909 1.272574875154581
H -8.577090051475105 -0.7462973331973758 -1.692663229612145
H -5.899321229857341 -0.3272246974527533 -2.342505336166988
H -7.160866544224796 -0.4931937643360553 1.3851829398693094
H -5.110042833803495 -0.8859744418762927 2.9526263325576854
H -2.1448815698895736 -1.8707020416455353 2.174566980620442
H -0.7238954084149639 1.5785528819340409 1.5130517544653566
H -0.7163378278663336 0.47300764722417243 -1.3380978380760464
H 1.5943679403860915 0.03712435886815806 -1.3549859247974725
H 1.3987498661449156 0.4430269912501278 1.7363852132443296
H 3.759627107200207 -0.0032477887535222543 1.7113055606481122
H 4.7292086595726905 0.4169027715937292 -0.6405341138612545
H 4.05351986861806 -2.4311633332938904 -0.9991098499781744
H 5.931802338473332 -2.88529411788691 0.45866067237514213
H 5.977648726077788 -0.7418091373987733 2.264036092103193
H 7.841216458249734 3.073088555074091 -0.2637149092571202
H 9.769498789631355 1.4877832609200792 0.2615342605832091
H 9.441475271527123 0.6858280968472398 -1.3661004550637104
H -3.5138445481013574 -0.7391760987705439 -1.0364521144153844
