28

C 4.197299477349983 -1.8857115226888554 1.2079043510446805
C 3.655859003441972 -0.9252751772970652 0.5128394672539258
C 2.856646576308411 -0.25644758790695243 -0.30227411952741506
C 1.4200675466215134 -0.5103975682751156 -0.2267829278476842
C 0.9769899644405953 -1.7055382799919332 -0.14064487120219818
C -0.10311335814240691 -2.0948939705938154 -0.736966031881235
C -1.305087456991545 -1.4215287859281633 -1.2493213123403735
C -1.747754999346606 -0.24944385654431211 -0.4386261320218078
C -2.3776156264592623 -0.5922991588830949 0.8422486448162868
C -3.6754280103803434 -0.8564348892176288 0.9411181950656302
C -0.7541385043521894 0.8215854789414886 -0.3541698458579686
C -1.3257499821448817 2.0726257898719944 -0.37358621405168774
C -0.5341199345875397 3.208249713650749 -0.3018925524371036
C 0.8397695598590444 3.1285777574237463 -0.20949791244234492
C 1.4131458093737794 1.8616978065733722 -0.19020977215937673
C 0.6229560536639658 0.7174677924957051 -0.2619390434436849
H 4.540062662896943 -2.8109808118412194 0.7864868400704311
H 4.3023726664627935 -1.7401768076818562 2.266113702129152
H -0.107897291565851 -3.1860949413057105 -0.8885124804215763
H -2.1607785770477417 -2.1550280293576445 -1.2573124581523536
H -1.131846438163065 -1.0466325547090432 -2.3000727257275755
H -1.7643393966519596 -0.6301204209908742 1.7296034984762299
H -4.335914198240677 -0.8326353892763537 0.08269553246663017
H -4.123660656620384 -1.1073250634196272 1.8922856301449598
H -2.390491181057733 2.2301682114350694 -0.44369601812816517
H -0.9627817642528639 4.207515185116155 -0.3154990206885565
H 1.4861395976744982 3.990506977950082 -0.15198016966140185
H 2.4894084579113827 1.7685701024505234 -0.11831225347554887
