42

C 4.496198010036065 2.1059928439116815 2.33434386700114
C 4.7806458706178905 1.8706151058176914 1.0705035139908394
C 5.003237389684605 1.5491916981442235 -0.17866550398072437
C 4.367314346767254 0.3408602526271098 -0.674905221949428
C 3.138767653254185 -0.005178666163624983 0.14439532635475397
C 2.554321711267625 -1.2148268680209222 -0.4003281429715113
C 2.7922726956011332 -2.6023888866390124 -0.0657526529030244
C 1.6661325688353352 -1.031936934524876 -1.3456488128738646
C 0.7130085215750444 -0.8231944391651844 -2.2092169091075893
C -0.5977029325147528 -0.6882158238055426 -1.6668444436569703
C -1.2754007124288682 0.4566919004909728 -1.5705948706887207
C -2.534633486666361 0.1702434214162896 -0.9782311221794107
C -3.431578805776371 1.0783111629476956 -0.7439419318281278
C -4.295270159501173 2.0043142309607322 -0.4323514022103763
C -4.1514858054792265 2.585501790541747 0.8607961964915568
C -5.0167400547559176 3.538988314938819 1.2201320209034408
C -2.7242676398377834 -1.2252843122560744 -0.6571651006388228
C -2.4242836142397888 -1.6600185528076061 0.7172586159977269
C -3.071863207914188 -1.5869651021978342 1.8682462574187562
C -1.1148791885601677 -2.205913973879354 0.28459513533799496
C -1.3911567066608235 -1.8247356452810122 -1.1298237237627338
H 3.6322259839908786 2.6995069224123234 2.484822068386898
H 5.16898805006136 1.6693356105018846 3.0237107284002254
H 5.640079531079109 2.2325411782910907 -0.6885521385371199
H 4.046476706263564 0.4724715610058787 -1.7420633887844184
H 5.078001092947649 -0.5218047017791977 -0.6731546704827867
H 2.498932290151758 0.8697002947096175 0.17152382890429527
H 3.300501127871194 -2.703785625613886 0.903544551396967
H 1.8560228580050953 -3.195596015181857 -0.06803540137525535
H 3.5041712846873514 -3.0288827353300967 -0.8307901080685249
H 1.055728381982074 -0.7830665293414923 -3.209162840641778
H -0.8915071867643827 1.4171209787751413 -1.9007604715960107
H -4.997034575042299 2.2053688883214435 -1.1874074259260565
H -3.4044956002242457 2.328960404768314 1.5869882456602982
H -5.817316372076921 3.8777785386507158 0.5586385868058716
H -4.982806367753681 4.0342544058762275 2.180318984157165
H -3.6129765193536785 -1.7373993758924664 -1.0735966808582489
H -4.050669209868033 -1.1274484540176595 1.9468172458425381
H -2.665940715244857 -1.980669449179854 2.802237266430095
H -0.2698960702582035 -1.6074088775709747 0.7049864079547864
H -1.0045721180192673 -3.301991556290474 0.4056810757799098
H -1.5665490257365826 -2.651036980169248 -1.842546958194447
