20

C 4.378328387435346 0.7817362129649281 1.4691152468055628
C 3.666924051144826 0.041272818519913 0.6655307491023361
C 2.8839888752791563 -0.6418039477642805 -0.12809609937727792
C 1.6260484582495423 -0.051840161199506234 -0.46327625530922556
C 0.6882676448689896 0.10407136456110384 0.44972924108184575
C -0.6065732854698537 0.7190618443242738 0.07311394767471889
C -1.4267879412906803 -0.33718529008656994 -0.5947574535415893
C -2.7497404001173558 -0.38430542274287144 -0.42348123741621135
C -4.0390152434489615 -1.0984635128681755 -0.7602053649677659
C -4.0224738007619045 0.10438928320780355 0.14374200456659655
H 4.223401402322802 0.6149586335321018 2.5073351901063186
H 5.033615762025242 1.471084211645039 0.9802677927665274
H 3.2913015466202333 -1.5787440448992287 -0.4350244071134008
H 1.4522640988760531 0.2665141576323134 -1.4797519642588963
H 0.8242927816790159 -0.2009284186559377 1.4739544965877855
H -1.155829493033807 1.1361215084530132 0.945771005695951
H -0.9068903237660051 -1.0412744991978216 -1.20668494491621
H -4.465006110089175 -0.9080498902093329 -1.782796348903411
H -4.414638317921267 1.0759476987911145 -0.2587226978631818
H -4.28147809260236 -0.07256254600800417 1.1945346153891385
