32

C 1.4308398727927083 -4.217123113329077 1.05367073470352
C 0.8515369456064046 -3.1690803785799178 0.5399810437979614
C 0.29140188667715344 -2.051035041733139 0.18124629890705607
C -0.4794461747339912 -1.0373961486619374 -0.07982692165586015
C -1.3387319463126832 -0.991462503931244 -1.2200961632287337
C -2.3604607089717646 -1.820219419656484 -1.2158876086716537
C -3.354966662583677 -2.6827073902885177 -1.126356763715804
C -0.4581111744087998 0.11643895785544149 0.8533378626231233
C -1.6182924742734661 1.0185495487454768 0.6456651321611577
C -1.5473863237000196 2.063046633757349 -0.15489722945779152
C -2.6998060144818212 2.931148051164753 -0.34049092127979896
C -2.658798381842763 3.989921656093549 -1.1397672983938643
C 0.8347409673731067 0.8437637575589698 0.8070132493165474
C 1.729985131925867 0.6500566111695064 -0.1495383991955479
C 2.952734519184739 1.386880182761238 -0.12847487126537888
C 4.061946130367891 0.7063369733701801 -0.1960865238276724
C 5.1220200431197345 -0.06059953281094242 -0.2658404979810014
H 2.5020806773569735 -4.298969889082475 1.1196883387138565
H 0.8520796300345804 -5.051239549598956 1.4362615056784553
H -1.2833057912103278 -0.38595438753954225 -2.083343231497087
H -4.222793101219071 -2.2976418366821263 -0.6620977706044564
H -3.141162251292606 -3.6352828288158388 -1.5310183358045661
H -2.5454880782358553 0.8218981964989398 1.1583130498803198
H -0.6399747824497917 2.3161002271451667 -0.7014394818194448
H -3.627240755752591 2.7096155710592393 0.19066631548457857
H -3.5089044930402777 4.615278558911237 -1.2655685221632738
H -1.765026455779012 4.248819303608909 -1.6852125346139422
H 1.0177253040802732 1.5500623140778729 1.6003291573408398
H 1.5442615532412687 -0.06903582319484368 -0.9576717837610044
H 3.09446935118582 2.4427164721181382 -0.0636534053117815
H 5.461426108627197 -0.25986628373704523 -1.2506859230595568
H 5.5026474487142 -0.383018888256071 0.6653673293224467
