19

C 4.17484275056532 0.7326192065836951 0.21245652611426513
C 2.8810627001476283 0.8726546564876617 0.420878333208973
C 1.5907794226889742 0.9122005232441087 0.5962515151526149
C 0.8480259773939891 -0.27876040501868593 0.2994806726556216
C 0.7424874597674286 -1.5663392186512162 -0.10621865120236132
C -0.5020581610060751 -0.9173286073914626 0.25615063178758524
C -1.3786619637482984 -0.5196213980676002 -0.8792549396149046
C -2.5552885781509738 0.0552391452766845 -0.664438193464045
C -2.9856261966744237 0.296828503963792 0.7424209878480518
H 4.717991119071885 0.38854719933774856 1.0512615972108275
H 4.488744220199696 0.9838822772714025 -0.7665475264862911
H 1.2111475240887002 1.8326741351794325 0.9456751369040574
H 1.2515079012909045 -2.459863067325305 -0.45859282397496764
H -0.9688496465435195 -1.097460159793348 1.2422508496109685
H -1.0825554928305146 -0.6873689448392485 -1.9081356129501634
H -3.2055023735047024 0.3512032686166619 -1.4655922732660698
H -2.2708890885099184 1.0206135515193955 1.1970330330448054
H -2.966801273791314 -0.685619161871855 1.2595014895325656
H -3.9903563004549367 0.7658984954780869 0.7717760562327333
