17

C -3.8140003052706337 0.0388356763086933 0.060941695959656324
C -2.6586847166304644 0.6151898166894122 -0.11442922286621189
C -1.3798012385130323 0.9579281263945947 -0.09403814869217447
C -0.42118779140170676 0.10961877208199546 0.6418516852845678
C 0.3714730449577312 -0.7954606214146885 -0.2754089607694065
C 1.1769492562292307 -0.021302229406818158 -1.2870092342211383
C 2.2683905889865628 0.6802622889263198 -0.5567734465660997
C 3.253360144765043 0.03430990816187236 0.06671871134749993
H -4.136521596553488 -0.6559160645335405 -0.689713795240492
H -4.431938195375798 0.233994243885937 0.91479561750073
H 0.3271254111142038 0.8070087550209563 1.1042730020834364
H -0.8615423874886381 -0.4865300698525256 1.4430743955676013
H -0.26793670449086515 -1.5451073982753216 -0.7788424091564459
H 1.125443972707752 -1.3103239309961654 0.388971865000183
H 2.217505189611869 1.7783288509959199 -0.5594866763359453
H 3.2315077235087397 -1.0467333260467224 0.02248539563373505
H 3.999857603843149 0.6058972020601064 0.5686760905179868
