17

C -3.12282638643627 0.9428680457571265 0.35615947387127755
C -1.8720242199099824 1.1672518395211235 0.08447956801615458
C -0.5638941876741844 1.121058267700894 -0.13873353777954484
C 0.18701657374649372 -0.06954678725957296 0.08976313164317576
C -0.39946404795129264 -1.198623910849517 -0.23162546503607015
C -1.0426694670133583 -2.3065164482685736 -0.5562398723275056
C 1.4958566518789256 -0.23282239678995298 0.6207730032714227
C 2.4836747496501324 0.2382782516977941 -0.1111806017757853
C 3.41565074545496 0.7353917914830915 -0.8993181967244709
H -3.4042278009978424 1.1424960262373542 1.3687633078502879
H -3.719918599962555 0.5867671470175754 -0.45648846336062215
H -0.22590914866070064 2.072162480868663 -0.49144547907248837
H -1.6123057612938259 -2.715093891704525 0.2309499917275681
H -0.88186779502677 -2.6026454308298423 -1.5505287252265605
H 1.8130429992112431 -0.6804252236494697 1.5271026014843785
H 3.8000259674195696 0.05030741761051368 -1.6074674614783053
H 3.6498397275652623 1.7490928214574182 -0.7160473522186644
