20

C 2.5745140486458458 -1.1920545528621238 0.7794703041352306
C 1.9676001470759488 -0.784744193953659 -0.2975864848422444
C 1.3101694531004064 -0.29373763723654506 -1.321506519894064
C 0.1978519098403571 0.6021814576747324 -1.0196926988704156
C -0.007605427994943123 1.1733903037413698 0.3144393992619024
C -0.5311097436201258 2.5753638231527303 0.5169119952945743
C -0.9794484821225077 0.14169949198671872 -0.24396267526652865
C -0.9958957493701454 -1.150680800448162 0.4636302865908299
C -1.913619879815888 -2.047528044676348 0.1270161866400278
H 2.1882152393856655 -2.0974919603198248 1.1945239609539682
H 3.3807104632907783 -0.5840153486098127 1.1266931295902083
H 1.683531712813356 -0.6208079967705324 -2.25715520333837
H -0.039912951403062946 1.3051414847596603 -1.8726076645370606
H 0.27860962366092684 3.330827748408302 0.4846905956685971
H -1.3096724206711714 2.778624567526909 -0.23513568456858783
H -0.944902923326117 2.6145668230636496 1.5493293566936965
H -1.9804841132119178 0.5076854870187759 -0.5424848821859249
H -0.2818503917485178 -1.37364866268894 1.240537726374447
H -1.9571706207449318 -3.020077925290292 0.6310323307192995
H -2.6395298937838056 -1.8646940644766412 -0.6381434584195641
