18

C 2.974487036110787 -0.13561314079894865 0.35103407085303384
C 2.264363852820458 -0.710057335021702 -0.5714812360571442
C 1.2649995800306921 -1.2097422159883384 -1.2895920170322535
C -0.13646747737597667 -1.1156115221545027 -0.7967286454462774
C -0.33003733210326 0.05569368795925875 0.14330713055898792
C 0.014119031800480557 1.3196808613992197 -0.6176692515175976
C -1.7938266763760455 0.12430997215326393 0.44585275040442895
C -2.3141973417734665 -0.1920633579680459 1.596191944198163
H 3.357569102482983 -0.7200995687944365 1.1519033089706212
H 3.1592087341687662 0.9127143856822693 0.2919077363507957
H -0.3581109241773607 -2.0843207537297785 -0.3009797363156325
H -0.8353864044956809 -1.0258910592491381 -1.6760557933321338
H 0.8333216816210066 1.1495516307470877 -1.353127845419804
H -0.8841222745540849 1.6479137254659837 -1.2013905161752354
H 0.25133510006925697 2.165642408061118 0.06049529690938085
H -2.41616567160197 0.4711860666523795 -0.39776219031920085
H -3.3711429467193277 -0.12731836390888548 1.7681424117764477
H -1.679947069927361 -0.5259754205068329 2.3959525815933422
