27

C -2.942573486907015 -4.016966138965113 -0.31826737684226963
C -2.4169559643430167 -2.8135835835222855 -0.46168630449933734
C -1.890737504342801 -1.6119810030817903 -0.5119463280357717
C -1.5957352167181815 -0.9815024359515143 0.7666823725687538
C -0.6127767786163252 0.0799358320166474 0.6976408007824624
C 0.5629533346818337 -0.23899887995768923 1.1818188432070171
C 1.792876533972625 -0.5824639750714281 1.5358512654377257
C 2.6011397910459517 -1.1220296687104017 0.5105513491709366
C 3.617917922081482 -0.4030473808930512 0.09388774111453292
C 4.608011587676814 0.3973764066469369 -0.2479823186592476
C -0.7265679653981748 1.404776937789196 0.18632775162121287
C -1.725772351760041 2.2344321881066014 0.4489743344027129
C -1.5250632018335895 3.5098716548185296 -0.23814880729994245
C -0.4047739841912987 3.474114994766659 -0.9260756385388513
C 0.1893129453114611 2.1366199740288008 -0.7108747879080948
H -2.2321925503691746 -4.798151168582219 -0.2836624702630291
H -3.997171802845654 -4.024226809363153 -0.2581241172202428
H -1.7446895229306947 -1.2465621821559245 -1.4928251074560062
H -2.551401643873395 -0.5574960875222048 1.1680598517266179
H 1.9623751323872076 -0.38829718362262833 2.553149678067518
H 2.5167154076929026 -2.061135482025691 -0.00419413809310031
H 4.369914210507884 1.0757206234154872 -1.0233489504179503
H 5.497686859256578 0.24826856290828272 0.3010116007897589
H -2.5987693118329465 2.0310915573501545 1.0867481717729062
H -2.176738020561937 4.39526518847251 -0.21830646509783988
H 0.22652738536364433 1.5810680258078391 -1.675209960425212
H 1.1964881965462604 2.277900033297345 -0.27397918789840026
