22

C 5.492409973374528 0.8591324686325915 -0.02440048063413412
C 4.317404097683018 0.33953925778629906 0.020781528774395052
C 3.1688330692904625 -0.25144475752160195 -0.01798149912645859
C 1.9533498890707053 -0.7238969206348171 -0.22814911737384283
C 0.8300476399784013 0.06416546926930357 0.28839879204240787
C -0.4805645105486203 -0.2161906586094333 -0.3624812518738069
C -1.1246899027951927 -1.5326910227797592 -0.3595686850336259
C -1.5994956437323018 -0.5581257794341346 0.620806623105163
C -2.8926952397228196 0.20542238216460917 0.4453710946810548
C -3.5279105196200113 0.011437306459395927 -0.8873838682590877
H 5.663738071890921 1.841471260181689 -0.4643395315744367
H 6.364039057184859 0.35867174177252326 0.3655484082792325
H 1.0754591693439557 1.1453383606593945 0.11741489664449521
H 0.8093555778243234 -0.0527932212537351 1.401620600606483
H -0.7556375479790965 0.45238087643236535 -1.2211283319695319
H -0.5994271681992044 -2.460483625765388 -0.008255187961117662
H -1.331959022659181 -0.7379071347651022 1.6754437834608427
H -3.5903536547130313 0.032845472088738024 1.2887860694076125
H -2.6202286502062586 1.3000922899837373 0.5215265559516075
H -3.1336095094878584 0.7495506855999092 -1.6124960405633102
H -4.617088744301526 0.2089652079558397 -0.7794964665338627
H -3.4009764316761197 -1.0354796582223353 -1.2028089608859927
