25

C 5.4715014755848586 0.08697541575309627 0.9946306928528681
C 4.371848875771325 0.7833537217227323 0.8869697424697817
C 3.2315514130981424 1.4271762655430555 0.7376125351765238
C 2.2023966945209965 0.7212852398274883 0.039752044472397226
C 2.5343591636530656 0.01869263981519162 -1.0258988294964864
C 1.6565914790116854 -0.6398825602147181 -1.7080989750924922
C 0.48417109901316424 -1.2094807937217595 -1.0272534011673933
C -0.039360959984275884 -0.193680743609286 -0.08585703968251485
C -1.4504061129219652 -0.232965699365627 0.25859703728629346
C -2.2889726563945336 -1.1214120542319677 -0.2197928143181119
C -3.708244696629129 -1.0300004306160093 0.23004888785969238
C -4.219917365733197 0.3478709304753997 0.18788453431295976
C -5.334234484479869 0.653457336650639 0.8320354486738453
C 0.7901018731232008 0.7063887709877475 0.4041295285524559
H 5.537766055581383 -0.5174540697579142 1.8619524739959799
H 6.164082095640304 0.21434979310577973 0.19416189017219132
H 3.2265557312548907 2.394661485651227 1.1590131386098865
H 1.7863041780251554 -0.7668554439502349 -2.758977181359344
H 0.7742075358679367 -2.1528393137759263 -0.5157990865806503
H -1.9446297707442934 -1.8809572662815304 -0.9111674163169942
H -4.348932441106656 -1.7693977476292617 -0.28074192661129527
H -3.722968013901865 1.1545757516130193 -0.35689158531880877
H -5.8480581038027015 -0.115551903798019 1.3775365292482098
H -5.7473243038176 1.668323254561086 0.8246293042230766
H 0.42161123936985884 1.4533674212459486 1.092998495216659
