31

C 5.642988688142715 -0.7423615498910382 1.4575000307842851
C 4.566054668335426 -0.5462705264003676 0.7513010099714886
C 3.6119297933724264 -0.47675200681101504 -0.11439119239107559
C 2.638400117129825 -0.14987271187779133 -0.9208566562076561
C 1.2520196544796418 -0.1765473345276254 -0.34255379330287794
C 0.4783770703628414 -1.156863943944425 -1.1158642873742453
C -0.7611406655364564 -0.8929966689565729 -1.440666651706777
C -1.4353428547066014 0.3478218418642592 -1.0705268776046504
C -2.5561586499570352 0.17012133445312877 -0.16237205643023012
C -3.1449693463747845 -1.01167196492724 -0.18624265489319766
C -3.5848936379641274 -2.2554521721552034 -0.21936630319358003
C -2.9194087444716255 -3.1867094362693704 0.6782410857114036
C -0.5434472269354657 1.4625720839152556 -0.7326172909046484
C -0.9596566543524783 2.8263548507748664 -0.7495365783357916
C -0.7602452071931977 3.5134210195581486 0.3592601792457068
C -0.5228607086292546 4.118691840502114 1.4996990310342253
C 0.711536928276878 1.1846699933595235 -0.3951234934360155
H 6.163975747889455 -1.6902362329370462 1.439668490856695
H 6.031132082235677 0.0470783903713211 2.074492638468899
H 2.7888231394994767 0.12472466592263964 -1.9368631728373806
H 0.9675564191101282 -2.0856363707812844 -1.3986182641670315
H -1.3325874365041326 -1.632930271435553 -2.0197601274868053
H -2.993616974599113 0.8321348819195609 0.5306153218764464
H -4.370419465628077 -2.3953558122607808 -0.9072893449123572
H -1.8191693779953562 -2.94349558346921 0.7194027454771715
H -3.272910312285192 -3.0686449334613997 1.7372432092724706
H -2.973096363610128 -4.251848445998357 0.354844081222041
H -1.4109358458505683 3.389237037840199 -1.5198644260766003
H 0.42538801514491575 4.5828311495574905 1.5653664963384872
H -1.3158650160413305 4.059249361973634 2.202607519909894
H 1.3985421646502236 2.0047375140896073 -0.13772866890091534
