37

C 4.5503757598140115 -3.5696754522263596 -0.44527061723305944
C 3.3926250556076742 -3.0147347760736056 -0.1309096802022376
C 2.2859834336979423 -2.4098231407424127 0.23207874308272863
C 2.4259745037142233 -1.3326604608202532 1.15410288052307
C 2.654682824876097 -0.1501983646656168 0.6197551219047438
C 2.764321324546306 1.004160778267323 -0.002664178411990754
C 1.5246620731083906 1.6788958215888465 -0.34075173855398383
C 1.1495454744480005 2.5708808850712215 0.775296101745542
C 0.7654450196823332 3.7974287457496634 0.5489138824619361
C 0.6905948575881145 4.334120288816468 -0.7965586226852948
C 0.2980875662159445 5.578795026090835 -0.9897139787863096
C 0.4010799175358042 0.8120101482235241 -0.6456932651600633
C -0.48739787513558536 0.5385708656207432 0.28100526827522326
C -1.6377612120176759 -0.3356285070117725 0.006629370950255082
C -2.5858557730079057 -0.6877582037633623 0.824497959313763
C -3.540608126284813 -1.5634686396347899 0.17117899635274217
C -4.760258010865434 -2.181392466708345 0.7559121226518631
C -3.1439527000139544 -1.7329065211690005 -1.0687594106953668
C -1.9004198369403282 -0.97418336463404 -1.3001082770477261
H 5.02459315687452 -3.1346563383840116 -1.2818591876017633
H 4.832940028387771 -4.36638651332203 0.18584457788284037
H 1.410534444652854 -2.80704415049902 -0.21552628588912975
H 2.3779542147214654 -1.307568801708861 2.206754712026135
H 3.7621256857366427 1.2891535568483588 -0.17698935395083323
H 1.1971346093905906 2.196501073026487 1.7756612214212544
H 0.9490797219437699 3.7381359331383703 -1.6472029951304377
H 0.23601564855146093 5.999500222310689 -1.998973898818115
H 0.035245028260666236 6.192888341588319 -0.15972236630144543
H 0.28356848874137863 0.388625021413512 -1.6205730407607395
H -0.4044400324245503 0.9467304958425493 1.2789473769159971
H -2.632114688236895 -0.3525938155878144 1.8630170219266102
H -5.254345643645366 -1.4179778601096906 1.4060016079984272
H -4.518991931099269 -3.099648308710502 1.3496849949152103
H -5.4512418002979794 -2.497266606499324 -0.05208706681436255
H -3.622907624200067 -2.331840740940753 -1.8489162613244252
H -1.0346048641340806 -1.627782602079611 -1.544286329402416
H -2.0376687197938206 -0.17120156830283703 -2.0530832123084286
