16

C 2.934669210427434 -0.1600798253959213 -0.4621329944720656
C 1.6718374358266952 0.1757704367009333 -0.43630015656062054
C 0.3804536327900802 0.13790533750546943 -0.310355063269029
C -0.6098297673167616 -0.8041737374798306 -0.857204128175539
C -1.926560898022098 -0.4565905602023539 -0.18742493232498977
C -1.472153078284003 0.30162835961502116 1.0595095921180222
C -0.31371784468825786 1.1152693097705373 0.46583021095672966
H 3.427315228777607 0.25983547003347235 -1.273501203946959
H 3.410312127319451 -0.7814513983349455 0.24587946925267848
H -0.7718639180770723 -0.598527996156888 -1.9560084769693042
H -0.33364973498239 -1.8738415496499277 -0.7047670340050062
H -2.484062117616954 -1.3847950649219938 0.09799808330076673
H -1.0942210665561736 -0.44445854061687207 1.7910720485420752
H -2.2402421418627054 0.9546285889655941 1.4665425619042771
H -0.8181905199331309 1.897897863898043 -0.17148361850793675
H 0.23990345219843148 1.660983306269693 1.2323456421569432
