19

C 4.646202835922569 -0.06977702482242586 -0.24030239452958785
C 3.403817827580238 -0.0866206271536391 0.18707987474179974
C 2.106020241972445 -0.02254743906549001 0.26717495579242045
C 0.8370465865752518 0.15299801478478414 0.3534575175016201
C -0.450609971085403 0.40409650425657384 0.17240797565818544
C -1.2852370468705963 -0.6117899417291554 -0.3733770383487025
C -1.0213545339502696 -1.85068954445828 -0.030863695544914353
C -0.6752667637608365 -3.0582982626261903 0.36788793225250876
C -0.9087486296905716 1.708162970627377 0.549497552641144
C -2.1692854402750372 1.9824981946964448 0.35157825165204915
C -3.4522515174626136 2.1535106894925953 0.10872274975996693
H 5.065168745832238 0.7401621644283026 -0.8117742116943218
H 5.2509379679171575 -0.9328541429773116 0.014623805949916392
H -2.1070916677321145 -0.5110101191585623 -1.030759213975767
H 0.03058765694872302 -3.539334359888403 -0.2510384933910028
H -1.1581186236614571 -3.3749568508477137 1.2592311993468661
H -0.35385872610788266 2.497680170897669 0.9760010008127776
H -3.6698401208027445 2.5367542980291935 -0.8495432370234274
H -4.088118821349057 1.8820153055142188 0.9084722312897319
