35

C 4.731760030286185 -2.36447643753973 -1.1490692417209258
C 3.451005067099479 -2.662178415721131 -1.173474819400484
C 2.1338726270672095 -2.7592413589741653 -1.187389035789746
C 1.4936479590932712 -2.7346016670129174 0.06288982340275386
C 0.9232549621593866 -1.725869633789506 0.6453983234467667
C 0.8480334934769139 -0.39816409235973726 0.06887053405913256
C 0.2545390315889515 0.6330945056078627 0.7161624890603437
C -0.36140033013197254 0.5464315383114894 2.026963559875476
C -1.3935340921683526 -0.23039852008425687 2.14721562822729
C -2.458322893140148 -1.0018612128023292 2.1890197663137467
C -2.1805202794493552 -2.40992913933783 2.4137939513160145
C 0.35046187048912725 1.859324760639071 -0.08295129167815796
C -0.8842422589023173 2.532920612562718 -0.44461557805250235
C -0.9831117387962508 3.8219931603770116 -1.159538050456233
C -1.9892204625648184 1.9605404072079295 -0.14467137071819408
C -3.1960847265286456 1.4429988153210953 -0.059348105548221126
C 1.0781248332832154 1.4189331897750186 -1.3051491304946001
C 1.3437019734969922 0.13464919822620303 -1.1829256015747769
H 5.34115983166355 -3.1851529048435365 -0.875003731614632
H 4.976176076068972 -1.3673947084993627 -1.4008037804825475
H 1.7364290681447978 -2.8534656085961676 -2.1652195057073076
H 0.4999168325790113 -1.9478768454967401 1.6377844594309228
H -0.07852187888224653 1.0327298298032495 2.9191954220910916
H -3.372142316666065 -0.4958324032005066 2.0527287407692167
H -1.3093320129492698 -2.5133732454374145 3.103704317575142
H -1.973540607821721 -2.9492411713898123 1.4395305641265657
H -3.005076836826931 -2.952097805083796 2.924531406411412
H 1.0694892310495079 2.5844140239354414 0.4426366337937776
H -1.7797092994096062 4.4697104121735265 -0.7061658532267233
H 0.006453091796583659 4.320951984314192 -1.13868267102372
H -1.3082038640802869 3.628631078083573 -2.2030243396645517
H -3.6422899292059094 1.6230451944179352 0.8858753929985104
H -3.532598551432901 0.9370659634117791 -0.916683224054739
H 1.3400748877133941 2.0703179070462863 -2.1572416564829613
H 1.8697512118527373 -0.4665974110445019 -1.9443299989578935
