47

C -6.384110237165226 -2.095790158894617 -0.37092136567322154
C -5.74639484102947 -1.0183636076133302 0.033710604940092516
C -5.029726020472941 -0.0028621918668502934 0.42178953739224406
C -3.613679528773244 -0.16930978458990306 0.43981749191937897
C -2.8959264119863457 0.12832193380690354 -0.6228721479212788
C -3.615177911895666 0.635336340656427 -1.8174112962960818
C -1.430363510656579 -0.03727124963919826 -0.6229607604953921
C -0.9274121906138336 -1.3369010166916835 -1.0777274180286458
C -1.4425852291337318 -2.3864420297990185 -0.10809955260677828
C -0.6366685695281825 0.9331078016685036 -0.24978928375126278
C 0.7430058796434146 0.9675305281985856 -0.18130641719265447
C 1.8586458409300912 0.44269862048307973 -0.3167960227248232
C 3.1148658777251055 1.1898494203506498 -0.007780879800772817
C 4.303079054877996 0.6584881956369728 -0.1425827189394968
C 5.5597916153700595 1.3386654853289188 0.14334744300551264
C 6.541686017429716 0.4961980113414003 -0.1071853207243479
C 6.021837916675391 -0.7809337001746576 -0.5689577462747009
C 6.783335667492527 -2.0047465513427976 -0.960027228971184
C 4.681319399274023 -0.6811190285552878 -0.5892468212574206
C -1.317879601052141 2.255821867948526 0.18674697069445353
C -0.947985624161763 2.5539243311988087 1.6008447932853516
C -1.8697575631963235 2.658830627740183 2.5466873633551046
H -6.549151521633507 -2.1438365612988375 -1.4158221440698082
H -6.645862655811754 -2.7699825579880417 0.4010544455506267
H -5.60592453348188 0.8570848772502597 0.6874439416025624
H -3.082655434446575 -0.5414603056595317 1.3156496762779932
H -4.3471549638406115 1.4327276536202378 -1.5387669498049878
H -2.946465961090398 0.9307255035516999 -2.634231325701932
H -4.255519230716859 -0.19519985300449025 -2.233784285750219
H -1.4603604879514707 -1.591134924902262 -2.060418685885936
H 0.11856138522759439 -1.4183718574083624 -1.3173516426940168
H -1.2716445634329214 -2.0721005403226584 0.9456310160892001
H -0.877714526384439 -3.345274218993659 -0.22210217690619066
H -2.5295920501724414 -2.5425898783881236 -0.24164823500279084
H 2.1009559131893734 -0.5821481010982921 -0.6564837068337148
H 2.98925595597033 2.1968664478655513 0.3344775398638807
H 5.644197694019115 2.3726315864220404 0.5034703754140584
H 7.587536896034928 0.7142750875929383 0.010734146064122362
H 6.620437371973028 -2.258853231115537 -2.0257862723905107
H 6.559882992466156 -2.845577009941996 -0.2715726268949978
H 7.861934019437682 -1.7795118686038012 -0.855285927091215
H 3.962365151220849 -1.438618845311294 -0.8798981092879463
H -0.8424460114961313 3.0196102721677067 -0.4524521099424357
H -2.3961297259705474 2.16649603378102 0.1234094845775998
H 0.09670479116113116 2.6954689115780104 1.9020208414345692
H -2.910846632700513 2.519260121320821 2.254395770981289
H -1.5702639013237423 2.8744794136960024 3.55603874217006
