32

C -3.840902075604388 -2.278772347403312 0.9968202649926066
C -2.9648971480748254 -1.3673341027768036 1.337934336413875
C -2.0822507167749538 -0.44416056886134275 1.5974451646323067
C -1.7449614376043994 0.4393071596024773 0.5158423840715113
C -2.670121733139221 1.1907288722960379 -0.012805588338675502
C -4.049108194238787 1.232734733284251 0.3861868006816009
C -4.863617429235673 2.053046064521831 -0.25396682665583853
C -0.38045605996134585 0.4918076127861615 0.01785143215305661
C 0.02333660260783466 1.2674793333498107 -0.9663064439997893
C 1.436516330093558 1.0851646433385334 -1.221457582059635
C 1.9022714030904226 0.18956584524253176 -0.38577389182393207
C 3.2809412382609127 -0.3093719824185344 -0.2812012733128744
C 4.192215630729761 0.1581970342074293 -1.0898512155164377
C 5.597739771366846 -0.34665401568251697 -0.9874267203792775
C 0.7985062477216096 -0.26872108259447525 0.4744884648390728
C 0.7593844413330813 -1.5554914424611384 1.0324910771266071
C 1.0332723724882498 -0.48077648087449687 1.8950299337710277
H -4.854906277286426 -1.9994490566308865 1.144854004942242
H -3.4307242435537435 -3.188308817183147 0.6117170629617612
H -1.7122376032169548 -0.4574277639555728 2.5966321854197063
H -4.419694023655902 0.6160756139057214 1.1847776699911357
H -5.910726835825883 2.10436293098912 0.02762315119374538
H -4.545883574741571 2.684173308050629 -1.0513784996702906
H -0.6474359582000686 1.9595895287151275 -1.511858830590024
H 1.9924472810316152 1.61413983744137 -1.9830680562026737
H 3.5227033252280124 -1.043297390835328 0.4487037036174905
H 3.9133196828870225 0.9050152122234354 -1.8220572425336679
H 5.554891717466769 -1.3534505125887286 -0.5750425051783187
H 5.983826981596425 -0.4173157007642676 -2.024912574851648
H 6.239447807116958 0.3354319844518878 -0.4069632941612401
H 0.6387406710103666 -2.647706667599876 1.024508389266844
H 1.2483618070691809 -0.16858178177235983 2.8921689850354997
