19

C -3.4187863400681917 -1.282648355268153 1.1725825758364428
C -2.3102618006054083 -1.19302266463408 0.4946608864383236
C -1.4494020405386092 -1.0630861362589703 -0.467317283128043
C -0.44277792310543307 -1.1729423539194652 -1.2968674052986913
C 0.7167992925989 -0.29181585182058056 -1.1316648803245328
C 0.7315908954053101 1.0953078864938017 -1.6649615225387193
C 0.17267165551169156 1.9751753289691958 -0.5711817803279433
C -0.34849536885229776 3.1584455453850007 -0.8461137412292038
C 1.7835708373242596 -0.7005408805536888 -0.5052095528216484
C 2.566580884235801 -1.0125677352145224 0.48631152753539536
C 3.4857765361457336 -1.256545174730082 1.3699505714362483
H -4.137036680876296 -2.086271794092224 1.0486068451334032
H -3.677146791879054 -0.5325838009298398 1.9130094456233087
H -0.42921716279508293 -1.89219226846191 -2.1063936416461635
H 0.18859602767790362 1.6514082192223998 0.46348281402190383
H -0.7371807229143181 3.756667143281281 -0.036697415901649884
H -0.4115447440856504 3.572151955241209 -1.8448596117917937
H 4.538949545809996 -1.2719303092889884 1.1386596587366558
H 3.1773139010106832 -1.453008753420343 2.3840025102467104
