21

C 4.0839923857959946 0.6452964854230455 -0.5073183454208124
C 3.2821262768880137 -0.32950342325245785 -0.18602585143109232
C 2.419323942675245 -1.2528427462533092 0.19288016379565512
C 1.4395706686303424 -0.849176504196113 1.1945052005249008
C 0.3409410914156865 -0.06880024270338313 0.4625127035933262
C -0.7067149355244362 0.3882764687608259 1.3895737918521411
C -1.960568344229844 0.44900747538623537 0.9780007708683808
C -2.296718974374616 0.061448791316774845 -0.3954774655896106
C -3.7952773384450866 0.2016947770838523 -0.5782191036137255
H 4.967388678673958 0.7123596732736057 0.08085397419031909
H 3.7572030780821937 1.256556917203249 -1.3182833161842298
H 2.5542939076153615 -2.181127394692263 -0.2884596000872176
H 1.941806922385916 -0.1988152731418353 1.9376889036477736
H 0.8446988080636073 0.8371417151044231 0.05072770331152092
H -0.0233816285053106 -0.721027564989196 -0.33602902797033646
H -0.502572152184324 0.6815620759911959 2.404905888335425
H -2.0289268505217772 -0.9987282581409418 -0.5857569241518445
H -1.8135766750054696 0.6981790369696783 -1.162568149016106
H -4.123663469653639 -0.5660974143096731 -1.3031281202567162
H -4.084556749479419 1.2061175146839638 -0.9449927005617899
H -4.2953886423023935 0.028477890481994256 0.4089484566292783
