22

C 4.571504479189408 -2.030954842372514 -0.07831197073611046
C 3.880822007943127 -0.9262027273937156 0.11831506813565328
C 3.315841763434315 0.24475056948323645 0.026443505508046465
C 2.7755235042878432 1.3746201223571992 -0.366802259011202
C 1.3796788162324725 1.4573863532213023 -0.7183057238918077
C 0.48571550939328756 0.8560412085472493 0.019813818021316924
C -0.9437989655978797 0.9091196275394271 -0.29353296447662086
C -1.8393715702221798 0.30373076889245343 0.45027811188518296
C -3.2686810974751532 0.3802803327732327 0.10243625362849897
C -3.7493000573369293 -1.0467109709126552 -0.1303327977929392
H 5.534963359990811 -2.1102413907478255 0.3584025577958483
H 4.187788604807178 -2.852493629139875 -0.6671963324242374
H 3.410192411079923 2.2506091884845727 -0.42101823659147997
H 1.0762508649127174 2.009538319348845 -1.581034807086502
H 0.8254751846623083 0.2996457013710019 0.8948627456787435
H -1.2477567428935958 1.4742583857382954 -1.1754531755280964
H -1.5147525085573885 -0.2439658824413027 1.3099605928516664
H -3.807422342713426 0.7309834878186644 1.0151883381692162
H -3.4803191220538046 0.9800463041086442 -0.7814545070537876
H -4.836371371820317 -1.003679848050939 -0.3172458518474193
H -3.256894591317709 -1.4507011262830356 -1.0275504940194164
H -3.499088135943888 -1.6060599523424584 0.7990325333625872
