20

C 4.522803931097493 -0.832792747821319 0.473493837350873
C 3.409852582051494 -0.49671496335959314 -0.11410844028832269
C 2.23001569453017 -0.18030793053318833 -0.6110115702649657
C 1.142216841943138 -0.01162722238614719 0.3389814599071905
C 0.12457018903200466 1.020634275592606 -0.0802891192076905
C -0.628839402498393 0.8946237909741367 -1.3133830127271224
C -1.2773719010330096 0.4930872995354097 -0.18041585250273062
C -2.4279897123763465 -0.0497326798030383 0.5598850788256119
C -3.5578309295984436 -0.3617677043216182 -0.36792041103705325
H 4.690895484424331 -1.8711932049480284 0.5940046492041645
H 5.13426840481163 -0.0006545438680082056 0.764945679092934
H 2.2320837340325106 -0.0887569407490438 -1.6639163578285057
H 1.4925957385361217 0.20779143108347792 1.3428971894678063
H 0.24503091838591884 2.01685558928914 0.4197705607049639
H -0.7177977281074802 1.0033079498856348 -2.384151319216582
H -2.1185044113543445 -0.9952778986420698 1.046041364043266
H -2.7978153572408737 0.6853654507197415 1.3050547163400912
H -3.977943235518196 0.5167549551581142 -0.873961694222064
H -4.3953777448906886 -0.7707050396101639 0.2705417214631362
H -3.3248630962282717 -1.1788898661957583 -1.083490738805132
