30

C -3.658009128263654 2.5330662453842216 0.18982871837390436
C -3.5344958002779157 1.260143712757103 -0.08422119539935731
C -3.313104259190815 0.008279162842003423 -0.39646199976897434
C -2.046527008535894 -0.32048452426956625 -0.9425834563470141
C -2.0870151715408043 -1.165553172043764 -1.9305177809157466
C -2.074172284237984 -1.9981034289278201 -2.9622881086682344
C -0.7270801147030403 0.15793344630523562 -0.546812343532741
C -0.365367392593124 -0.1591783440030549 0.8719032481908721
C 0.9726700744611763 0.32141338913931783 1.2478190570145304
C 1.0663845434943868 1.2991006429821648 2.162634186533113
C 2.2113418009922725 -0.2097095836900944 0.6932824788587302
C 2.38075968952545 -1.1693742238666613 -0.20078524613411647
C 3.8115918247851734 -1.393227489207768 -0.4839148635959448
C 4.478436639889395 -0.4047043038001206 0.3925510861221849
C 3.5529899580998467 0.25873338692873044 1.0538748981053763
H -3.357895135175053 2.8052254018306315 1.1717436667276906
H -4.0377027483703545 3.125897629269313 -0.5962030232014284
H -4.148997121038412 -0.6334956355908439 -0.1918887858788705
H -1.9910421304064991 -3.0073943892274095 -2.672941845604398
H -2.148044180125451 -1.5294309119467167 -3.9019999541455372
H 0.08289466265514034 -0.08238264837304099 -1.2201166517738111
H -0.802446329560342 1.296074275726115 -0.581438033357546
H -1.1286758031808366 0.2643561175286164 1.5503424206438738
H -0.3979522751593196 -1.2736693134124042 0.9795454301205185
H 0.17658781423776573 1.7195084888864647 2.6091080372590514
H 2.0055854844045378 1.6875197519028116 2.474578265520733
H 1.6094435269334233 -1.7474038121094695 -0.680711019543803
H 4.1221297482727834 -2.4385829603540765 -0.24903568625286754
H 5.553527516581237 -0.26224961969558136 0.4667236539696773
H 3.7941835980260676 1.057692709035916 1.7779848466801054
