18

C -3.985986848277696 0.12827445623974426 -0.455044808932298
C -2.833461054462823 0.6659050105381604 -0.8199533558954355
C -1.6210951662815318 1.1380662684160119 -0.82228075661771
C -0.46108254712950514 1.6890040421913046 -0.6032010392285638
C 0.6130822662951649 1.038433995623863 0.1939143093977478
C 0.1850532162642107 -0.305863526660573 0.8045537399477776
C 1.2089771554623765 -0.22340695529062723 -0.28037546469431585
C 2.577136301163174 -0.6170193042268143 0.11936549662048024
C 3.006415413181286 -1.8643731272821706 -0.04093093829058447
H -4.823280616061672 0.7604357744750242 -0.18998874441094576
H -4.126381748805959 -0.9397442131475195 -0.4105304704147894
H -0.29482309902343073 2.6671044728890565 -1.0321370700938572
H 1.2622855909993609 1.6985294947830218 0.8150995009310428
H 0.49648716964491846 -0.4210573898287623 1.8651764847161567
H -0.7828564666840669 -0.725901461292825 0.4968236692367378
H 3.254970436733408 0.10624647720587926 0.5509187255941301
H 2.3372802243626327 -2.616852764504341 -0.4766730206820964
H 3.987279772622162 -2.177781250214836 0.23769347788687734
