14

C 3.15595209729475 -0.37964113848945397 0.6745903476384438
C 1.9604915451321494 -0.7708776111492144 0.33846839347397084
C 0.7337930351586108 -1.0968679709551483 0.012487099358864735
C -0.32051090811677974 -0.46772567945255417 0.8185553238568086
C -1.4630773257705842 -0.11891883882216361 -0.10624011927715099
C -1.9968661028084667 1.2626637263991685 0.1102856477225224
H 3.53081701962177 0.48275793745498613 0.17741923793285577
H 3.6195220271554116 -0.9829890429156981 1.4217408549941422
H 0.6505226665259427 -1.7744206062817967 -0.7925917876565098
H -1.1630470512793853 -0.19384933388152994 -1.1767735909398584
H -2.3091260591822773 -0.8336581386438489 0.02563208533294389
H -2.6574873089890483 1.4989741204458495 -0.761520082826527
H -1.157398156441762 2.00404039653837 0.16408154725434637
H -2.5835854783003716 1.370512179753037 1.0284581636641
