19

C 3.5955999860690286 1.6144108599970448 -0.37997744197979927
C 2.558491352000882 0.8356232291387062 -0.48138064438866096
C 1.5770088365826316 0.018144744829757083 -0.23094386803180314
C 1.482804295305963 -1.106967208009488 0.6505889442137621
C 0.26663961756345694 -1.5975951515073 0.5321634750570837
C -0.45371423921892823 -0.7883836672331156 -0.43902944612363154
C -1.855464933158954 -1.0406307445443403 -0.8335195476935733
C -2.796117877954107 -0.22697130514410763 -0.03516229598187676
C -3.065027919768499 1.0089637927568116 -0.43300593497603396
C 0.3411970444596594 0.17766424656588362 -0.890293032999618
H 3.6629165643448345 2.409531095179223 0.3144233584810746
H 4.353151704275217 1.381516113097108 -1.0447836471907004
H 2.2806487643131703 -1.4782823587189988 1.29624218512048
H -0.15606587013902204 -2.46539213904882 1.0618948364407739
H -2.1219863743388263 -2.114370335914633 -0.7733310420902322
H -3.276836339192734 -0.5892908677892935 0.8583562528070774
H -2.619313436221868 1.4286691689941486 -1.313763789466075
H -3.745261835366703 1.6442773854918529 0.11509796014755
H -0.028669339555206647 0.889083141859631 -1.6312832056943014
