47

C 7.47467345708489 0.17198382591092373 1.8112618159032998
C 6.740815195185601 0.40153327407620737 0.7452183290947326
C 6.059807710102572 0.6563842137739806 -0.3366674328645738
C 6.6278904082479295 1.6126879193730081 -1.2678141762072153
C 4.823209528666624 -0.0723964339679124 -0.4320453033835561
C 4.880374776833315 -1.4894469480342207 -0.8803073211022364
C 3.6470353522383103 0.42017717927480547 -0.15277682101750958
C 2.555464750267222 0.8874409657768112 0.33975051586912064
C 1.4548203224303409 1.2401740145904177 0.9419999708243312
C 0.6138910326705902 0.2689450581737241 1.7095262901626636
C 1.165995432615243 -1.0807384191017047 1.4553220447193405
C 0.24055208354299729 -1.800527953545183 0.879874437810683
C -0.9762767384204384 -1.0400092572990662 0.6965134952095068
C -0.7695614503401164 0.21968236943649186 1.1941183662084123
C -1.7905344407982704 1.1296324071832302 1.131568621127173
C -3.0275582468273234 0.7787807083475149 0.5676739628156369
C -4.044437505439424 1.7003183683820744 0.5104794988769843
C -5.283207192768487 1.370316747452411 -0.047054601516295334
C -6.317514870755768 2.3947638301634844 -0.0759822758048429
C -7.490240587188377 2.154874344974019 -0.5794465456811445
C -5.443922237354384 0.10109672927246523 -0.5312701230880955
C -4.420486860846909 -0.8507327369784853 -0.4818838675174257
C -3.2016773431911694 -0.49985541508829606 0.07546149595468513
C -2.181805424335123 -1.4228366741907987 0.13323839092871298
C -2.4361273509069026 -2.7374224086549424 -0.39997524708471904
C -3.57074302676927 -3.094340282231106 -0.9289844578664295
C -4.709604318497531 -2.1830193753008786 -1.0335845107176826
H 8.167036339421777 -0.6160725778262646 1.6994100706490523
H 7.260200276999475 0.8113541491902679 2.6187228814944
H 7.725355243775907 1.5712201837276332 -1.3744437103506042
H 6.224807674395644 1.3694020775765428 -2.295065862735269
H 6.313212618082901 2.6712546153930457 -1.0961976745067237
H 5.877844029001258 -1.796107428637542 -1.2122281671612487
H 4.124823427229202 -1.5886829873331434 -1.7040930903274232
H 4.580656747454904 -2.106536474318359 -0.0090488904109198
H 1.1023336510615385 2.263023140188005 0.9094511367463274
H 2.163558435604944 -1.3906118940787746 1.7109698023035183
H 0.3485875312371449 -2.853446954737503 0.5652111193812974
H -1.6985293292705959 2.134587015614814 1.5022610682379887
H -3.891534106624563 2.6943184158324507 0.8994494446589116
H -6.109456720125507 3.3793790649257374 0.32972837069680455
H -7.750710040704941 1.2169158539134965 -0.988382428686938
H -8.260073415795372 2.9398088407911804 -0.5934512711737955
H -6.398154185590268 -0.20201640503399265 -0.977174922126897
H -1.6450354768950823 -3.498931944196822 -0.3704637218318586
H -3.6896533472841186 -4.1407958297958904 -1.323315171324748
H -5.066101807422282 -2.095526912963866 -2.0777949007812784
