35

C 0.9435737656988957 3.3236533003598963 -1.4166494224661839
C 1.059030821739291 2.871730165793879 -0.20485523475988238
C 1.1501916340848652 2.304631977227948 0.9653524567299574
C 0.7833490534031144 0.9181263297375446 1.0949054340002664
C -0.22447839885427134 0.3892238380360121 0.13525180966274952
C -1.4888995015443942 1.0640268749422908 0.08065352934742803
C -2.5632759561632996 0.28613242761713364 0.17072838449100874
C -3.5316883064931726 -0.5824362010082749 0.25570676775993234
C -3.97352052192453 -0.8606069557895099 1.615480147515571
C -4.00132601623827 -1.1207410517799812 -0.9707254882536442
C -4.980593904988117 -2.0123122410894037 -1.0270172095893095
C 0.5071825126867513 0.22422020032466836 -1.10831509313283
C 1.789308935188856 0.05225275228637872 -0.8136712789314698
C 1.9973414530843456 0.0890910783831229 0.6446197424140294
C 2.827841911274792 -0.3423473421376587 1.4665160839200964
C 3.9933885205755266 -1.0584725684162928 1.7082271885133353
C 4.745614403580082 -1.6557170013558935 0.8244960479736985
C 4.610559105147013 -1.755986906840552 -0.6091278845152006
H -0.011174348517402793 3.7432279483600106 -1.6503774258418205
H 1.8097032153449184 3.222466065135561 -2.0327717572004156
H 1.495436151283785 2.935968806070004 1.7318572508025174
H 0.5037605554975672 0.6373672684891081 2.1264992260019144
H -1.7652623241241958 2.0745045001234295 -0.018928236107693616
H -4.095943554445501 0.125469246009762 2.1505924626007413
H -4.933726904626748 -1.4009732929723617 1.615450461410931
H -3.217451568775578 -1.4126768157090843 2.217026771609207
H -3.580843641948576 -0.8270082964005521 -1.914153625787378
H -5.447215573173854 -2.3505214307447813 -0.11545835432022813
H -5.354866938942007 -2.4357433645291064 -1.9441173729388113
H 0.11943173891588431 0.2334067631887538 -2.1014063975448556
H 2.5792684667112336 -0.08719294325869388 -1.5173760615386211
H 4.38994070264595 -1.1753384024110416 2.7661978669675324
H 5.393105893935222 -2.461371258272013 -1.015239960596022
H 3.635114222578597 -2.174605287295546 -0.9614642666967045
H 4.837124397384931 -0.7814481820746322 -1.1070785551193254
