40

C 4.227483825971897 -4.286744782833451 -1.1227249701491986
C 4.211130190943363 -3.0657956886205135 -0.6270464571513946
C 4.090139415278001 -1.8508788670350786 -0.1449469776550671
C 2.988890053214497 -1.0440575006459007 -0.6747413959359213
C 2.058861845093621 -1.817577773586384 -1.4786122174051919
C 0.8517643436317579 -1.9723063842312283 -1.0023154627659578
C -0.3500902483882338 -2.009133600462566 -0.47631661769808464
C -1.2545398791166278 -0.9834107456886159 -0.9217333389769083
C -1.429168650993649 0.14505664408073932 -0.25980947980546815
C -0.7067734655233414 0.3971368004084945 0.9550974672779707
C -1.156314196098331 -0.2383730712413217 1.9970839145426438
C -1.6016242610948015 -0.8308876431701692 3.080392142007888
C 0.4401266331750773 1.2636807852114365 1.1417851625524298
C 0.6859909038576959 1.693657192016865 2.519477953910492
C 1.677984715975152 2.5095338777596505 2.813018080951332
C -2.376134471605311 1.122543203299084 -0.806069329895018
C -3.120411876438782 0.8702936524732807 -2.0625424971844533
C -2.595193421139979 2.2719698586097747 -0.1762266753589609
C -3.553505348853152 3.2796489628657537 -0.71518925185372
H 3.645242634009512 -4.994213409586248 -0.5994921757654571
H 4.833525860205307 -4.377604609132312 -1.9868266129173722
H 4.811221579062442 -1.5922229086475919 0.5807405210515675
H 2.503705002787647 -0.5323042034864606 0.17134456735572068
H 3.432329095613928 -0.2447339931866932 -1.3388479682181602
H 2.203218909293968 -2.288193946830024 -2.4123630342480076
H -0.5016659885651997 -2.792455999256872 0.21279808475530151
H -1.8455453691705617 -1.1053252011417167 -1.846432240471914
H -2.306380325570188 -0.27256025819752 3.6272618616228227
H -1.17815488516734 -1.7822134606753655 3.232905844493493
H 0.4314343262459308 2.1677814269110947 0.4868862502520732
H 0.04680349752863906 1.3394057323967075 3.3122232857375837
H 2.3394862759978174 2.8854215659730253 2.047844301231692
H 1.8593654363809884 2.8291199538001557 3.8394644513313367
H -3.7919427056107424 1.6999123688999316 -2.311368837812775
H -2.4113950109812374 0.6112726999028308 -2.850524446284738
H -3.7454504694383854 -0.04331847609458792 -1.8891785698532375
H -2.083995794923226 2.4734755770891255 0.7472597917749061
H -3.1944413625471455 3.5789696441102015 -1.7439631901076718
H -3.5571899165670824 4.15689221913179 -0.046095105019478104
H -4.578786895103085 2.8285403586200055 -0.7850040621878313
