32

C -5.444237383406877 -0.7875642403646159 -2.0464889224557363
C -4.911624436341039 -0.6526626915628314 -0.8564740498338707
C -4.337943063616025 -0.4747964959965475 0.29318443923650095
C -3.192525405328952 0.4155789535766646 0.29977074299140327
C -1.9491552205957376 0.00038666969999794553 0.2881194899790681
C -1.2679921748916867 -1.3013906806759525 0.2671489456586275
C 0.062378035275729854 -1.3611499713719382 0.260254555120538
C 0.8735509269432047 -0.1735577761708408 0.2727843482880207
C 2.3112362379682883 -0.1556809151843373 0.2676022740255284
C 2.878033759236216 -1.2620012421422606 -0.10357762849302891
C 3.4182007374271217 -2.4192297905929636 -0.41613574315793705
C 3.210958465435051 0.925934080273348 0.6210234513265305
C 4.241938895077215 1.076366579439091 -0.4407215721796397
C 5.513452860491565 0.893757718842728 -0.14960925916964157
C 0.2684730319179898 1.039424251487293 0.2920599450741196
C -1.1185745202973216 1.200547939889682 0.30054719495340737
C -1.9406916120958277 2.321015604584276 0.3199897635484528
C -3.2277098945927976 1.8803541370630212 0.32010726166546083
H -6.204609949047748 -0.08951160371253085 -2.278029365242794
H -5.044405488603956 -1.5792129258866998 -2.626605015971675
H -4.764548609805538 -0.9962218304767642 1.102399883347708
H -1.8695053903993724 -2.1918892440873043 0.25767866704169445
H 0.5677681664196496 -2.33674769308624 0.24461887969456306
H 3.6618138928483996 -2.497055707769886 -1.4372012524219926
H 3.521824967516337 -3.0827761638702964 0.3961058867427804
H 3.6598610325507135 0.747305770710289 1.5990639081679634
H 3.9181044668324665 1.3317131523075698 -1.4228747804760578
H 5.826052992634797 0.6386134309602138 0.8360801710785833
H 6.258221195442275 1.0054085609897085 -0.9295726525587724
H 0.9219367511416489 1.9350401738182537 0.30130726006140435
H -1.7296577185793194 3.423467670112183 0.3342030701525669
H -4.110625547556543 2.526534279197311 0.3332457899954977
