51

C 7.323621794779136 0.16419143902789146 2.735273518506534
C 7.48615503650026 -0.1997635251631254 1.4815407235051141
C 7.559789965808546 -0.5580247107019737 0.22578399716839243
C 6.3125751140916595 -0.672762492601818 -0.4785444088072974
C 5.986435000523546 -0.026374591722530216 -1.5567665951937288
C 4.6385315814846075 -0.2234060942039683 -2.221453248006289
C 3.836402422321248 -1.1799373177311694 -1.508376871056627
C 2.7127418271186063 -1.1407159685071022 -0.9335895253822493
C 1.687967222225608 -0.16383743851023952 -0.6987800249411754
C 1.6887264589013957 1.0699985796396236 -1.0785777475457365
C 0.5290979508308107 1.9583516032093526 -0.7474683826641441
C 0.6093202781908973 3.216600998825091 -1.547765724285456
C -0.7447401094998355 1.209864629507988 -0.9999350056895949
C -0.7860502774260427 -0.06291398880984078 -0.5772801854060537
C 0.44103955654446253 -0.5775183841245757 0.09234371907274576
C -1.9666523253104617 0.4602320117561997 -1.2312005216102573
C -3.1947748042130177 0.8017155399947278 -0.45356812274664504
C -3.1122017428492113 1.7839579855638745 0.4214804042996788
C -4.4674862585647785 0.07175859824093858 -0.6300265676069597
C -5.539079944959852 0.5122523237177183 0.3392588194599504
C -6.782655938730526 -0.23620566349860322 -0.035991819085113244
C -7.123772352159737 -1.0399303748213118 0.9532100220423695
C -6.159430179203159 -0.8925123521828674 2.033875141294214
C -6.251286579347917 -1.6670957877608195 3.3189314224868713
C -5.23458026783992 -0.005793821703818718 1.710099634169763
H 7.207087920444562 -0.64000970780514 3.4138208478866683
H 7.330874491957573 1.2102021411270003 2.893328979634058
H 8.54057863478792 -0.7227130731578546 -0.12633320692946037
H 5.574781937840154 -1.3746336140308164 -0.056918395970778336
H 6.651350118687081 0.6659111521490324 -2.015462682112244
H 4.934103592392805 -0.6348846146111173 -3.2465474772262826
H 4.222319061539499 0.7587762046213123 -2.3044876456464767
H 4.360044917603112 -2.2078322370685988 -1.4662189420539802
H 2.4212421893738707 -2.178522592232754 -0.4624255263920329
H 2.473855598786873 1.5434789490660823 -1.6310618944267918
H 1.5179359493034907 3.217102963203341 -2.1489100491776894
H 0.6711734603939965 4.091372667482996 -0.8605930488255852
H -0.3226869023774552 3.2827397670449536 -2.175869692498327
H 0.5385882109222638 -0.08439342709950357 1.079165604658193
H 0.43644520068812 -1.6724553765671382 0.23689593873114168
H -2.1406957387743577 0.14058888031581368 -2.297455954404008
H -2.1840590220165472 2.345714841259625 0.591552685369879
H -3.9846019282745804 2.0621188140672637 0.9917424960996939
H -4.2892279371317095 -1.0334378837979374 -0.5598138996503875
H -4.855123136849176 0.26935650039686326 -1.6514134518386596
H -7.284433068871526 -0.10127474689393204 -0.9847993573606771
H -7.998205816126603 -1.7018110979235612 0.9371548743558371
H -5.266456613414769 -1.6708702055130882 3.832077151846117
H -7.047867866224309 -1.2647786053000076 3.9588878471458995
H -6.524054422884267 -2.724967972643156 3.0487820453126515
H -4.432662260988358 0.23258566779863063 2.392430101494138
