33

C 5.015068555253065 -1.5917844557417438 0.5481166456257692
C 3.728030841490282 -1.315186574221534 0.5285607575830217
C 2.4538043549091304 -1.053789579739651 0.4170093345752151
C 1.8890364018247199 -1.1233943485227675 -0.9331493752632033
C 0.40622990155575434 -1.0162136175821077 -0.8917016305081127
C -0.1326688790293362 0.23925724470639537 -0.3338832471540957
C 0.6618795808806818 1.214156094668239 0.08328744171792833
C 0.07619969359438906 2.4825893431026507 0.6485477490414576
C 0.2871323103514907 3.630090122557691 -0.26714702461186873
C -0.552057410192827 3.792782931106971 -1.2805151231730307
C -1.606584674792754 0.4552375538060415 -0.219506121327944
C -2.2575348194303926 -0.5480515975464894 0.6306837343308483
C -3.200907189894867 -1.323623693020939 0.13176389781540113
C -3.9180218828507587 -2.3676845480148114 0.9121732407206543
H 5.646475342222265 -0.7528306715276654 0.42170816022768687
H 5.2407769129599275 -2.6170590525614212 0.6869867873388645
H 1.9722986464445054 -0.819474827760945 1.3254975797681385
H 2.3466271432979586 -0.3285607741791175 -1.5883615960203252
H 2.232909558717691 -2.076177307879552 -1.384802941108873
H -0.0629074839147005 -1.8645993603531368 -0.3266302476465518
H 0.03924041517817599 -1.158827366662718 -1.9455406048623305
H 1.7413953390086048 1.2045731816327228 0.05645838632771042
H 0.4658001927917211 2.672340414710932 1.6697957256834493
H 1.089173432133632 4.346789418507621 -0.15761204225193098
H -0.4445416434230795 4.612552947362445 -1.9785803763625256
H -1.381503502395961 3.1165701472718297 -1.4577138358793202
H -1.7741136640459652 1.4454918961599266 0.23758252101781518
H -2.038716667547317 0.5074102061603079 -1.2382039991822458
H -1.9904992679858897 -0.6800846201626402 1.6694491390250996
H -3.478439494511333 -1.2030104085201927 -0.9048576095566504
H -5.007089520065934 -2.1269924395845936 0.88529470648653
H -3.8224971292420165 -3.3726552298145585 0.44349130107669493
H -3.6239953932863944 -2.379841028355885 1.9757960937025727
