46

C 6.329260849794056 0.7768472031853422 -1.7236663642421748
C 6.158380415929708 -0.19128725561549764 -0.8485858035359355
C 5.905331352516404 -1.1588780045590594 -0.006474855229530623
C 4.5695691548277635 -1.6892189490086291 -0.028132270384112597
C 3.433646857471343 -1.0575383685341628 0.18550162529609496
C 3.1020126186880077 0.3246215359590666 0.5042034696450226
C 1.790435220057495 0.6502126422599733 0.644677078535437
C 0.7101495133010854 -0.2779991626027027 0.5007277961227011
C -0.6973589271405118 0.04658569335297175 0.5710352078372838
C -1.5786133873505268 -0.9079408594682499 0.46504285787518973
C -2.770039639058331 -1.5502210289452467 0.405996843904813
C -3.940565937366922 -1.1032553843463586 -0.4022191320088767
C -4.727469724486964 0.05238662198584426 0.00986676480328938
C -6.042555865688101 -0.03903306884589645 0.13591832547806398
C -4.093175206623606 1.389045455059767 0.2890054934434747
C -3.2084940222366787 1.6064733722917144 -0.8863845823807367
C -1.9166521966169223 1.6104677409583987 -0.7560930767374308
C -1.3354158050155482 1.3866313821349812 0.6519222095071243
C -0.47794919574605255 2.5724971508181222 0.8093167010956305
C -0.5465014647922063 3.3122233144997613 1.9036445162694926
C 1.03762950434683 -1.590616195451842 0.20652467941377728
C 2.3420670993751544 -2.0322609892050125 0.04949538088446242
C 2.9010744456775037 -3.2661584888253867 -0.25729679404038946
C 4.255600000654283 -3.1102377940385324 -0.3153689627537162
H 6.652955111700426 0.45328060459830766 -2.6780022298563573
H 6.118825407186563 1.7455707926724473 -1.3531991650756647
H 6.722851579735443 -1.4398872893188415 0.5977754118289519
H 3.8731313492933346 1.0639633887672304 0.6243246568073999
H 1.6094160923815157 1.6663308882707644 0.9223036081147639
H -3.167463614733923 -1.8286355997484436 1.4694643864641834
H -2.586321272733223 -2.6543166667676648 0.038635987730761955
H -3.5825583366598113 -0.9004469207680414 -1.4544158529167643
H -4.661818010292488 -1.9774442420910967 -0.5514178612800074
H -6.542562517324195 -0.9785028080916178 -0.06779791163402965
H -6.660406792189157 0.8220780544184281 0.4466097367939707
H -3.7353581052249605 1.5334587596688445 1.2674055329409062
H -4.931301047467531 2.1574525891243423 0.15940539004782742
H -3.7080430490363763 1.7628048483889223 -1.8656953335623623
H -1.2371313360446858 1.758398097482497 -1.5591708931333388
H -2.05441393547397 1.37938908723174 1.4366518474888963
H 0.1728155044320104 2.8561312201184914 -0.027277075807358164
H 0.09509836629290942 4.201993904659733 2.024652503593239
H -1.2444756659990106 3.026830556928741 2.6773251325379297
H 0.18359885011893076 -2.2416060282301045 0.11046335730198417
H 2.5131645090719337 -4.277085026112453 -0.45117317506862115
H 4.969631252449241 -3.8831047742619815 -0.5316294601030349
