17

C 2.7313054482324297 1.3046287819294982 -0.23149545913753625
C 2.3412456868177656 0.044435561403405446 -0.26256537434399746
C 1.864352338969043 -1.1777244154451096 -0.25553914908154474
C 0.5066698850350447 -1.3462001729726478 0.24811793731782392
C -0.5373758069597687 -1.203674496373397 -0.7910900666169149
C -1.7645990977407031 -0.9151201757999513 -0.38450388790951123
C -2.8078228991603367 -0.17692514340820661 -0.045196644109303435
C -2.743190706622685 1.3057548558598837 0.07272820081132592
H 2.5137910408180524 1.8490783668268407 -1.1088526537049372
H 3.2058438672716054 1.5893840733544546 0.6691896430819082
H 2.5410078264199627 -1.9045050972364852 -0.624962004403904
H 0.28010439479135973 -0.7061580482537593 1.1322797976438914
H 0.41096707128110344 -2.403155592223207 0.6340760564196775
H -0.37454947825545054 -1.313278388102636 -1.848445005348359
H -3.0315369832470846 1.7082382730165908 -0.9351211034611195
H -1.7265953183419744 1.6688374336477607 0.32343077808810855
H -3.4096172693082156 1.6763841837771034 0.8773487031193505
