31

C 5.348547516360428 1.603401638418594 0.28733118578396327
C 4.213201163621097 1.4300107613776847 -0.32968370709464256
C 3.2669149681392207 1.1965189090231991 -1.1428517508614864
C 2.269362696144745 0.7423874900652382 -1.8517703436279391
C 0.850405875881969 0.921041553424136 -1.4731958201474957
C 0.30232411322784647 -0.2717946651549103 -0.7770213276868282
C 1.106699198155434 -1.320830370983924 -0.5785597330909374
C 0.564149413241943 -2.5202577372525696 0.11879376935879137
C -0.4589286896108314 -2.131902734696999 1.142681446665552
C -1.2569492049038202 -1.0851911471099318 0.9436430789439806
C -2.270138156565949 -0.6475437151559228 1.8900208589827419
C -3.0361088047722813 0.4178190423045875 1.7034142967874228
C -2.842879303336095 1.1764589665688885 0.4766577532859749
C -3.635295937170546 2.3982802758907593 0.15295207183432497
C -1.9245598678967015 0.7974474655637062 -0.4295995461437979
C -1.0637919177698998 -0.3580858722420419 -0.30067034098388895
H 6.121235613695342 2.2570478942080507 -0.11062429138403726
H 5.584333918621189 1.1089696900420818 1.225414769643434
H 2.458284669636267 0.19453490060377948 -2.7836143908905857
H 0.2400806295642874 1.155829930983487 -2.3937822121568226
H 0.7229554545648814 1.8221193484168114 -0.8195502877150839
H 2.1319733604891367 -1.3398649144965242 -0.9009152927376699
H 0.0270003810933306 -3.1397530119091406 -0.6303999219202703
H 1.3921361335520472 -3.077182434355099 0.5494538924681763
H -0.5531478916814137 -2.6892068659833464 2.032473273446057
H -2.3725374043246967 -1.2655103748951835 2.7989530270351217
H -3.782398062477251 0.7367535118434257 2.413129534124679
H -4.487315145071733 2.5111483079852066 0.8528491688996164
H -4.0903849133496815 2.3057035139404944 -0.8658786229378639
H -3.018827020355683 3.312193164749292 0.14776272155160827
H -1.806342786702839 1.403967909710041 -1.3474132594324018
