25

C -4.626986819841227 0.8928030370413952 -1.2456683846219134
C -3.3959354922231277 0.43689180782944553 -1.0735535090970354
C -2.18562252594201 0.01662293440648723 -0.845835545121673
C -1.6142840019958344 0.4129032221938356 0.4690171618891015
C -2.2654953320455467 -0.3235735184203901 1.5379151475543313
C -1.168394815462064 -0.9153708613133974 1.8833788857148601
C -0.4075679103085583 -0.25915800663899047 0.8737547838415549
C 0.8850630277790104 -0.32095949037343546 0.5365434133856813
C 1.9075268069384306 -1.127317415253787 1.1569466280781475
C 3.071706752659341 -0.9035881989805826 0.5260095643252877
C 2.8266079961689687 0.07026018343311202 -0.5368862377106074
C 3.8538445150777596 0.5845197925277996 -1.4647433344132335
C 1.532084389710501 0.4173635717792479 -0.5331980197590936
H -4.671745738027978 1.846403013077569 -1.697924000290864
H -5.379781085087063 0.23753783655098154 -0.9055937187263896
H -1.739564133911976 -0.553641377505162 -1.6052365337228534
H -1.6297794686442817 1.5309308900563343 0.5720095845859032
H -3.2871219220015733 -0.4091025123652114 1.9618000412831944
H -0.9262514427477345 -1.667703221114914 2.6877719356838603
H 1.7742276859606882 -1.8028940879471689 1.9904142979382446
H 4.00750947656498 -1.378207277920621 0.7853389634532058
H 4.213563196796709 -0.2808903027896851 -2.072254972960876
H 4.698894221602117 1.0048321278424357 -0.8924030512997746
H 3.4491051878868464 1.3841060848213549 -2.1081913442119724
H 1.0783974310932092 1.107231769062946 -1.1974020691546061
