24

C -5.3360784153255345 0.8467200819036261 -1.4288938189416698
C -4.373220161369778 0.7344625517613322 -0.5579088532691971
C -3.430356204158003 0.5365333483199792 0.33583238176139407
C -3.37525172923731 -0.7682678334399821 0.9220157834517538
C -2.2185183903266092 -1.3222783694753044 1.179964002709758
C -0.9809955423161704 -0.6378585064445729 0.8826126738649196
C 0.20715846525119896 -1.1737841688867714 1.1326830352558317
C 1.4201629967758038 -0.46461172838365355 0.8240260574634539
C 2.585530113294047 -1.0004630781197208 1.0738744130124547
C 3.880606818617115 -0.33615238246109613 0.7860158059048805
C 3.714089559930731 0.915131430519371 0.007791540206471278
C 4.328228174616675 1.1445686503757848 -1.1298296808321628
H -5.069612295043684 0.5960283440720402 -2.4341026388704763
H -6.270685936294846 1.172110821540941 -1.0397669484012588
H -2.8221319106589915 1.3837927665070089 0.5098416501364769
H -2.1880057969403945 -2.298417410338188 1.6184130628392734
H -1.0429517087397864 0.36694074965390977 0.4310640865967261
H 0.23673182754020675 -2.1518483394181374 1.5719794333241748
H 1.371872144528643 0.5094402816919563 0.3863914794459938
H 2.63247016657984 -1.983546377894409 1.5155480358802378
H 4.511268779540729 -0.2140578532213127 1.6810705048015446
H 3.053339625431175 1.6643564906890809 0.4076649898758777
H 4.170804366945599 2.0693593993097448 -1.6519668744952387
H 4.995545051359589 0.41184113173825454 -1.5535037716719056
