26

C 3.435696171045876 -1.1040571577296585 0.8403200905867576
C 2.690747817158656 -0.5979172272865144 -0.09967217071096995
C 1.8405437538737666 -0.15050252804326783 -0.9993917325266954
C 0.4543709689355106 -0.5316261565173687 -0.861344982524421
C -0.5220688020199912 0.38749185374661843 -0.33379639993471266
C -0.3716370920695151 1.6063629237320896 0.07686430102854798
C 0.8072688460811771 2.4278476268026496 0.13813515115484232
C 0.7293185647577197 3.6631353834716176 0.6005880504025918
C -1.942795201588913 -0.16314684166915233 -0.24885364008514516
C -2.2023388768282812 -0.7409430777728628 1.0702764443608137
C -2.5288612149951684 -2.004350360483767 0.9037215452330088
C -2.4986763773190703 -2.3166041913815465 -0.5411691952390701
C -2.156050397825306 -1.239334355413495 -1.212028466480686
H 3.8524792974663207 -2.0645823643286936 0.6305085346556534
H 3.5389525421274404 -0.4951704752838957 1.7112041282568768
H 2.321166277006285 0.4509054891141846 -1.7471550883556943
H 0.3423044675808372 -1.5541032031177597 -0.3775092712922548
H 0.10405534132436654 -0.771422993175447 -1.931195639643718
H -1.2897965756409147 2.158780645276254 0.46025763302592154
H 1.7559462209445003 2.082461749084134 -0.17694884639099767
H 1.5797204698367389 4.326159008043228 0.6702718856707248
H -0.22423352916653091 4.082711060595074 0.9431616270142378
H -2.140045679588995 -0.2341204276377237 2.0067047902684667
H -2.7851773695787623 -2.7297932831760523 1.679453599683524
H -2.735699435275836 -3.3116326234759015 -0.9272405470073285
H -2.055190186241777 -1.1765484733726044 -2.2751618011502863
