17

C 2.550201773793832 -0.7704441634152006 0.9501383870437943
C 1.990682898106376 0.0028971369433543853 0.03498103119571901
C 1.365993491220555 0.7720628822813554 -0.8193075016633034
C 0.04897943746213478 1.1950075844342756 -0.4496854859656866
C -0.8941529571266771 0.30982381816135307 -0.18649638468544563
C -2.2787779630899645 0.7207052718123761 0.2020619359098285
C -0.5784525863269885 -1.133904792607153 -0.2768173642887802
H 2.363532930148409 -1.7995788102201473 0.8206446719394884
H 3.103267488428925 -0.24500273911043463 1.6797116263516094
H 1.9192188922058957 0.991742014702869 -1.6941602725949043
H -0.22385167010756502 2.2571434442639187 -0.3718815444676064
H -2.625063889314623 -0.053688055767685434 0.9335152142590067
H -2.920463966320636 0.694634523178533 -0.7161347093133256
H -2.288715810886942 1.7074162857278463 0.697154477282267
H 0.2168124193629128 -1.3676609899705239 -0.9906337638253584
H -1.4951666694848362 -1.7366539139955632 -0.5316521897997079
H -0.25404381807088067 -1.5444994964191767 0.7185618726224151
