38

C 6.421554704429405 -1.1693895748920355 -2.8049584323579526
C 5.121380641558726 -1.3646816696630106 -2.75349686516633
C 3.849136328955931 -1.2236364696756217 -2.5124269414687417
C 3.3303882995063945 -0.6939897465068008 -1.2337168804695082
C 1.9545096646096611 -0.2787217426358557 -1.2791083331633835
C 1.3930001438888533 0.9505452761331987 -1.085336651430705
C 2.3001783421304243 1.9922835436976603 -0.7935311449310595
C 2.084674418344106 3.2430740439532086 -0.5604240907619942
C -0.021417334485165262 1.0183746977406989 -1.2023624945430758
C -0.841312125390455 1.9727308076810262 -1.0877373723304586
C -0.6860073533733092 -0.3430210965158039 -1.5339379970374016
C -1.2007037277581043 -0.9611002832996673 -0.2767143108083931
C -2.2127080961399606 -0.09438968250324302 0.389897942465243
C -2.9295041181695343 -0.4941999067051359 1.4164062225766532
C -3.8906937286408345 0.3803066190707819 2.0214694257071413
C -4.617959888502584 0.004910305640277403 3.0466903275056256
C -4.560089864156413 -1.291425302573167 3.6907248014287286
C -5.345534851261688 -1.536851291126785 4.710407677704699
H 6.850091901434164 -0.26692147567130575 -3.1587973077989493
H 6.955554466768452 -1.988738714914839 -2.462011463853305
H 3.2441201651415503 -1.5144506925875987 -3.2954231157983886
H 3.365576572479701 -1.5806204237868766 -0.5028083985635775
H 4.056803582698466 0.018601012829565108 -0.8340746357151917
H 1.2169595131734083 -1.0659505293770046 -1.505737865056972
H 3.4025295701615845 1.717409236667665 -0.7565623677852994
H 1.1682822345656498 3.735275793080154 -0.5434062273968994
H 2.9440305360633183 3.9429001879265204 -0.34177493166316764
H -0.6254331820229209 2.991095104832969 -0.8647470068712235
H -1.9303448173644424 1.732987319321563 -1.2365565260749367
H -1.5494519071961392 -0.15709742808915664 -2.201481662929194
H -0.344905769315481 -1.0340160992924656 0.43812498859484084
H -1.555985494077956 -1.962723229070336 -0.5019873383803258
H -2.7796365106834116 -1.4819717448887983 1.7876748773008642
H -4.011414072413973 1.379178486128294 1.6110534132430874
H -5.323253495835418 0.7509966831361605 3.433504846806677
H -3.8810860755569414 -2.0332143143052344 3.3312145986776414
H -6.036238726884031 -0.7990524855381683 5.085349024245462
H -5.315089946695485 -2.494505214225238 5.2000617385155
