29

C 0.21124588418514118 4.356860346738705 -1.2111132412595744
C 0.6358470107705879 3.385830762569468 -0.43045888596171944
C 0.9973946131033403 2.3743368045234168 0.3127410169945904
C 0.2274404842070568 1.1626554016815025 0.15062654998443184
C 0.828509226695606 -0.015355612890495482 0.20691564044302366
C 2.234436416077543 -0.38044477482835376 0.4176629975480871
C 2.3359263997283644 -1.701942568591145 0.3900402562320897
C 3.593503668420821 -2.4803025107304193 0.5636066202071449
C 1.0131943980096991 -2.272455905998448 0.16153502615377058
C 0.12821346261631736 -1.2843611228039342 0.053952993924183595
C -1.3211860739900396 -1.301063717102255 -0.17631362396478722
C -1.9094096712716002 0.037592088695130595 -0.22525873097927077
C -3.355555541030897 0.15976846633616082 -0.4504290785848556
C -4.116291284273277 -0.9062500869889328 -0.60625718793982
C -1.2092391433930703 1.1623668755052947 -0.07708231507694523
H 0.6738711046526273 4.389037904798797 -2.1626113033319245
H -0.5345459331248033 4.97179982567106 -0.7816369420631247
H 1.8158602436525175 2.56172927676974 0.9496287295141511
H 3.0136767521882994 0.36201746316531264 0.5657269596819862
H 3.6712107855802683 -3.1409053948258077 -0.33744268008156963
H 4.453722846204456 -1.8118030968789294 0.6673887196026046
H 3.5623250831102147 -3.1118901030982395 1.4795492340312388
H 0.7790010038745927 -3.340381145880548 0.08909658855351965
H -1.563294754655965 -1.8290242458541301 -1.1182955418937373
H -1.794359437476973 -1.8359276299202254 0.6978394598834039
H -3.841054158139756 1.1278377322713906 -0.4953766149084019
H -5.1622192974601715 -0.8552032550692142 -0.7703433938776135
H -3.650942806710238 -1.8997805710294762 -0.5653366126649858
H -1.7172812815507565 2.1152587937646623 -0.12607659432879006
