33

C -3.8671836136308406 3.0341749840626107 -1.3721761750421146
C -3.504252649719821 2.512949299913544 -0.22726040372984002
C -3.19437859845814 1.9361721078954663 0.9063056973941273
C -3.7993658854669374 0.6570298579144259 1.1489359287652186
C -3.1021828433477125 -0.5059634386201599 1.0726316989276747
C -1.7128752078682457 -0.44401359382503675 0.7371397122142845
C -0.906226891396709 -1.5528761320915752 0.6305619341624463
C -1.471815909095872 -2.8432976256590763 0.8646235909589172
C -1.0139410720395337 -4.051291045223426 0.8486879462268494
C 0.4502539328231478 -1.257277239532995 0.2849654538284967
C 1.4554931635615604 -2.018086675228315 0.1043073500367583
C 2.7812459491391532 -1.495174097117237 -0.25147433355317284
C 3.1049438840968517 -0.2687087529773517 -0.4228899904512596
C 4.5059245924143525 0.0342161285570457 -0.7796542170147691
C 4.844579789130442 1.2855263806298687 -0.9564992909540427
C 3.855474732004896 2.3604310379436755 -0.8037299282770142
H -3.2369901559079604 2.7738028472072953 -2.195883021100355
H -4.731009109028936 3.6419808616461484 -1.3427468620874643
H -2.5299559323682757 2.486658308639094 1.512075869849559
H -4.839796169600847 0.60386230764311 1.4007265036929626
H -3.6933302211739165 -1.368225074299241 1.2798332419339808
H -1.272182932982266 0.5257951514456086 0.5575412230877604
H -2.581366023913442 -2.823396199158186 1.1272189383738291
H -1.7324574336061485 -4.898071611174937 1.0849780689290331
H -0.03629206920137618 -4.3657618924380435 0.6401747723442835
H 0.6513778345983928 -0.1504369472078019 0.15184854197485168
H 1.4684672187450805 -3.1012029726067203 0.18461130947840215
H 2.391585343837803 0.5336513216342883 -0.31483352103245466
H 5.229359402763594 -0.7459639702910403 -0.8918547966549354
H 5.862073688010795 1.5917090540116414 -1.2222218631863444
H 3.3419899774409694 2.3429289384250755 0.19193027720540493
H 3.0183247016686026 2.2141236487577585 -1.5454041971246224
H 4.264508508570685 3.3547350311244304 -1.0116676602598675
