44

C 7.925125355537689 3.4111720187079713 -1.2576740574196472
C 6.766782293754665 2.8850988896287837 -0.9722529184664749
C 5.681362467659135 2.4476353135300246 -0.4015819375779599
C 4.627842223323131 1.949998194030367 0.16784474027480414
C 4.143353106567053 0.6582187228596101 -0.1804249859974237
C 4.824212496162851 -0.6183853473448898 -0.26161151745329503
C 2.8595585987269807 0.6183011248689381 -0.47594285478194853
C 1.5461556871600426 0.5449473625637451 -0.6282961479065489
C 0.7868262830238734 0.28615296304107685 0.5677743261926433
C 1.2867549538288778 -0.9463134485013576 1.2256522491709458
C 0.5710803202598295 -1.988726378869985 0.8544697813884765
C -0.4688721812477732 -1.557087451987969 -0.08106169905184657
C -0.6355814799985896 -0.10737856664185323 0.30257527739062007
C -1.8022321395902334 0.46086999232152437 0.2676057577593542
C -3.0615651700648794 -0.22405376433872434 -0.024021978853709058
C -2.9573121651173633 -1.5095717321508677 -0.25057127551727426
C -4.259680257382235 -2.063211941484355 -0.5348542215654305
C -4.336052058575117 -3.4213988656587717 -0.1764972303511996
C -3.2260700373733635 -4.134705265242483 0.17427861438019823
C -1.8895768770292207 -3.5664915207603625 0.2234713673021379
C -1.7353032815830416 -2.2680657048737065 -0.07165012058968928
C -5.150242611237557 -0.9864241779628635 -0.4080859164978646
C -4.483354265000537 0.16537759601904947 -0.10781773765847018
C -4.979135349251628 1.5197322536198268 0.10126171106226999
C -4.193951603185582 2.217103516062246 1.1506909519182107
C -3.941985603659043 3.5109039385868366 1.0410731421567596
H 8.838997302985096 3.018829903541663 -0.8329578352056917
H 8.004118113572588 4.255222947874988 -1.9276711237424833
H 4.125402563229895 2.539673129588241 0.9141463344240018
H 5.855415390394618 -0.4917518608150718 0.18126783300149318
H 4.977728464274374 -1.0081685011673 -1.2926547420877397
H 4.354493160524027 -1.4378603076880787 0.3137865856668073
H 1.2765872901737305 0.6937227388683238 -1.6324643694781793
H 2.1335414574618414 -1.030597652455868 1.932708094628439
H 0.6949176471030509 -3.0405924156741353 1.1695092164823682
H -1.8458455045941706 1.550446186964375 0.47521598831046474
H -5.255266072610383 -3.9810382560604407 -0.15431329718563938
H -3.3500628446408016 -5.175705265860791 0.4291432549889127
H -1.0295273146298127 -4.131848132488309 0.48223898232275214
H -6.242067644170194 -0.9235636426703031 -0.5064128647601336
H -4.939099704547489 2.132302057298289 -0.8429006894754498
H -3.8269368702313287 1.6687353690587685 2.0059724078925063
H -3.3719519831791955 3.99604662658371 1.8117622671534461
H -4.298582156823484 4.082449355077928 0.19390746833600025
