24

C -4.361747970024596 -0.7172287131527467 1.1013714040155125
C -3.6495290494477763 0.32103449837138404 0.7414877406970378
C -2.875827913118379 1.2995807856835628 0.34757520658497676
C -1.6922875503291528 0.9371013012826401 -0.4103434276622704
C -1.8152094842197362 -0.22793912705538066 -1.2634396728789115
C -0.7901808756909491 -0.6353281672342995 -1.9441459696303578
C 0.42176197768514334 -0.3934984857118824 -1.4650078542278753
C 0.5544670403518979 0.17011690879690083 -0.12525592859282617
C 1.8107883921587147 0.009917102170964903 0.6177276182132173
C 2.680003214084498 -1.0434151671192757 0.08191363670930428
C 3.841016792702987 -0.5038554898133449 -0.19643388928663852
C 3.841312478626222 0.9009301788711036 0.11908835358048153
C 2.6556019108251685 1.230341797359186 0.6011761842453219
C -0.4632917204970276 0.8247248998018041 0.4131237746066044
H -5.113446528063376 -1.0037797422777142 0.3969189826106776
H -4.106785609535599 -1.140267722613734 2.0350277043928764
H -3.2099186329520424 2.2610803723334767 0.6333034673060403
H -2.730994334185973 -0.7736242540778775 -1.3557260092446375
H 1.3146597259324535 -0.5925905893857393 -2.0161820813948186
H 2.427528503765446 -2.0866587955147713 -0.06558666125464839
H 4.706215723181015 -1.0233586013156521 -0.6109219832572927
H 4.640411566036763 1.63242454957037 0.008413339739300287
H 2.3065886380655365 2.2048630595748975 0.9402433588454198
H -0.3911362953508614 1.2572189902762758 1.4156727058835212
