26

C 2.18894150400452 -2.605814934584001 1.2894276602245567
C 2.2609689104737813 -1.3954859476252015 0.7703817504194261
C 2.2509025239881906 -0.18317968371307256 0.27683957965093076
C 0.9430293081187974 0.42535307181353665 0.13059514172824704
C 0.1838325774008095 0.7677151077956489 1.3037478954989796
C 0.6765219623459021 0.5120091336430542 2.519090476780465
C 0.4558702116107063 0.6755947255679843 -1.0599439826450094
C 1.2748285578502365 0.3233590419381216 -2.267535259351838
C -0.8579379986837892 1.2700315723186841 -1.2097088378663747
C -1.9472336551660374 0.6620637960144428 -0.7746502010292492
C -2.674423975341547 -0.44639486583604054 -0.12735655702461826
C -3.46694871461441 0.7302391623898575 -0.6330679338993704
H 2.0939979858182456 -3.373577632896367 0.5743307097190068
H 2.2354993767308047 -2.6370633178487144 2.343563402224026
H 3.197550283377911 0.21012894254016204 0.042555889440682594
H -0.7916853845772107 1.2384766271117842 1.2805178222359856
H 0.12859966070432077 0.7583725216723317 3.4066281103493092
H 1.6463250949608388 0.046861246596515055 2.670660223528192
H 2.3516498006834348 0.48051913949054453 -2.059310652650299
H 1.062458158314559 -0.7621303570999735 -2.4821399371099475
H 1.0053023052692482 0.9075722706969545 -3.14276111654245
H -0.9327402622222601 2.254417597252358 -1.701113933499877
H -2.626703649860412 -0.571345444704274 0.9782475631350602
H -2.8210280874702653 -1.3985273576460153 -0.688661459135794
H -3.8291797072489047 1.444980263968254 0.14565490475363754
H -4.008396895511337 0.6658256046950607 -1.585991349455721
