26

C 3.422779861299922 2.1037040594035266 -0.6068769477388785
C 2.799974205140503 1.1526505883152651 0.045195599381256904
C 2.1724079783710333 0.15536726775248222 0.5967200812354286
C 1.2429299108870646 -0.597203216855118 -0.255645053281236
C 1.5211923144962871 -2.049865776111722 -0.09872166229255615
C 1.541839495730527 -2.837284211208614 -1.1681527737946065
C -0.18504139658522425 -0.27190750672274466 0.01987212912842415
C -1.139507935856967 -1.4364735185322963 0.012853751362388668
C -0.5980905672015979 0.9395426353014613 0.25414492975201686
C -1.9447088378223196 1.4048047200186573 0.5358907636844267
C -3.2017702950829143 0.7976445114152689 0.25501437288283496
C -2.7939181929338086 2.1217046096504215 -0.4286821702867127
H 4.339429804299471 1.8318811061634195 -1.0780871758900925
H 2.919188543208698 3.0438959068642504 -0.5805657751323449
H 2.411165854494192 -0.0019325535144508225 1.6232391770190397
H 1.7131691714629464 -2.517335841724696 0.8601602367721879
H 1.7377712841964355 -3.8965027261342513 -1.1155049659699372
H 1.3578569816128352 -2.446319433716262 -2.1777641697928236
H -1.589333621078891 -1.5323560685660298 -0.9799157232432434
H -0.6051311651328887 -2.3845642802445464 0.2227655217990841
H -1.8962971467170007 -1.333404178318076 0.8290509210474651
H 0.1621029521093915 1.7388858515647807 0.24200729551283942
H -4.017491729875206 0.88751730567765 1.0323862402262134
H -3.424213909952338 -0.001931366387274162 -0.46697956280907055
H -2.5966867249880776 2.102747111584604 -1.5072551191386772
H -3.349616834082684 3.0267350043230463 -0.10326487518688428
