31

C -2.7777842418401804 3.3577245792871064 -2.108755813053344
C -2.6053047590600222 2.348172561997148 -1.3212126432528575
C -2.5495753304872157 1.326353561585658 -0.5185580214552389
C -2.544573117684791 0.33529387261242827 0.32868185038976006
C -3.645749866666297 -0.5799755535423824 0.3707206175954191
C -4.44852402081381 -0.47719708876277683 1.4049397097256908
C -5.200638731371341 -0.30469626957772283 2.474337941017878
C -1.4297550644042694 0.13269238192292693 1.247655237124664
C -1.5688986873715114 -0.47894905556963624 2.5790514744319917
C -0.2393488123046692 0.5307669402665356 0.8339593282463653
C 0.959234229745586 0.5881363488370224 0.35087573437285385
C 2.1230764076322495 0.7464669854767136 -0.2370645013327902
C 2.536610272574101 -0.13347231697993844 -1.3297177944611474
C 3.9872544555527814 -0.46637450909216815 -1.306492291153374
C 4.481369442246487 -1.5640935834234526 -0.7847016170785053
C 5.9350307995915115 -1.8163606372907095 -0.8038826559802812
H -2.486079881645583 4.344553538735088 -1.8165796923886388
H -3.2212067918205576 3.197282777328641 -3.0698756956935136
H -3.9184310900631165 -1.33883978779027 -0.31251235061718907
H -4.905962781996719 -0.8783100773112477 3.3116713438753744
H -5.992283358154651 0.38408742693845604 2.343198350135017
H -0.5827984774845086 -0.9567519904948548 2.825693642651972
H -2.32012341875156 -1.289271504448786 2.625045031178823
H -1.7983549168619688 0.2983371305014924 3.3242772701973995
H 2.797883018160448 1.5344904376117792 0.07926350110080341
H 1.964156250811103 -1.081946091545191 -1.369864235169599
H 4.66287917030317 0.2500884100732055 -1.7506625664049127
H 3.821661244241643 -2.285413558830479 -0.33967403698503695
H 6.400236049124089 -1.7165794028951895 0.20433551255965135
H 6.1545751048164385 -2.8667917355189116 -1.1218043664871615
H 6.411426903957564 -1.1394237900789477 -1.5308172937799454
