20

C 3.6143354584426803 0.5605609700597727 -0.0873461541946101
C 2.3849601259812836 0.7898080779356768 -0.45530062875311217
C 1.1249401896105746 0.9304288703857497 -0.7810659438481101
C 0.24465575324593872 -0.2051746539202573 -0.5352789739036671
C 0.9285220449924672 -1.5221012675511885 -0.46988319873134726
C -0.6425996322691934 0.0865092600323002 0.6436389090193445
C -1.586825138099626 -0.9681824089879657 1.0132769410983615
C -2.0934799273208498 0.1748912077707699 0.4278167089651424
C -3.295527043088933 0.8925705840780865 -0.04655077082256384
H 3.849686598970453 0.8190849306210026 0.9217297718753427
H 4.239494949204852 0.13851704255059755 -0.8443171932252649
H 0.8781097457317267 1.8657154771362228 -1.1931767743822836
H 0.9084567748924717 -2.035249637537322 -1.4551873091558858
H 0.35589109386423234 -2.162534838867428 0.2621644795942614
H 1.9891288056861816 -1.432803073605595 -0.12258037380470423
H -0.2003670676358228 0.7548369944934774 1.4353070993488135
H -1.7885192795645597 -1.9338881021083516 1.431814876913235
H -4.229984301842745 0.3168311815979368 0.19944819935640487
H -3.3149458964501934 1.0149582540257784 -1.1595772470227639
H -3.3659332543510696 1.915221131890459 0.3828903999153324
