26

C -5.107948693172523 0.580553145885195 -0.14792605102173667
C -3.9753934658820995 0.31930362176276306 -0.7581313415524171
C -2.810564131942661 0.09413680907074325 -1.312944435285637
C -1.6697976365117453 0.6036211276400019 -0.6106095066430702
C -1.2017495966534852 -0.026885573597134955 0.43162563586522895
C -1.8564979445798542 -1.2995981137745376 0.9089815111568617
C -0.05450823828528863 0.40464876952545853 1.2105675346355271
C 0.9261870914202935 -0.47925527392474837 1.3167881403152815
C 2.0121089342928613 -1.1970470374345843 1.198236359297504
C 2.8803072001915404 -0.8952764915565017 0.026488680324614832
C 3.678377423676272 0.3376152741036351 0.4554696197060542
C 4.618291041999485 0.8069561009671908 -0.5884429984010063
H -5.417298602293934 -0.15827640222266418 0.5417565362027529
H -5.558666606066678 1.4946491781513214 -0.42694147875475374
H -2.850751942769664 -0.44161757253652284 -2.2212799043885463
H -1.2110561851369968 1.5142414516183804 -0.962066891293861
H -2.2129385936955233 -1.0655260579210983 1.938285129313492
H -1.0126448754471975 -2.0488486704937983 0.9375590049902569
H -2.6452135102794703 -1.630385863205738 0.23048751368104992
H -0.026257810800633295 1.3801056334173598 1.6560688558396583
H 3.6121554386930677 -1.7024200202431963 -0.16425405319758288
H 2.263626742066278 -0.6875297494691582 -0.873009198528847
H 3.0491179766842413 1.1002215379061204 0.9105479757517106
H 5.5737221341897705 1.1266607677517588 -0.08301253653731225
H 4.788319160757182 0.11314272043636746 -1.4152868793928661
H 4.209074689546722 1.7568106881433616 -1.0212189102161873
