27

C 2.4004122421837253 -2.7179706772551686 -0.5734672588570187
C 1.6815195193039445 -2.0257429105886975 0.2695441032948223
C 1.0225817958008099 -1.2669450472940031 1.0985257229085037
C 1.5374337298782679 0.09329862298735128 1.2968243356161133
C 0.38043536936788525 1.094931037572713 1.4042950690040397
C 0.8765037434921262 2.456796384002491 1.6038087636794573
C 1.5065794268132022 3.000673542419493 0.5927317348489044
C 2.125066548108658 3.466127292720865 -0.47100440167724894
C -0.3332161512157698 1.0433176791405188 0.05341253485201956
C -0.8400306688763917 -0.3250300237874682 -0.21465304835935886
C -2.134117889341779 -0.6021745152586876 -0.2131351124210681
C -2.6434836118128335 -1.9336655195715544 -0.4732243123160136
C -3.9284526514133122 -2.1796631908189927 -0.4654825389345536
H 3.194426704064376 -3.2671381804554804 -0.14198952708871135
H 2.0964799121336 -2.640708728197048 -1.5877389901735988
H 0.17978199053786725 -1.7192234109715598 1.5424808601588191
H 2.1743857305178707 0.42906152196607333 0.4765277665251212
H -0.2865164386551181 0.7941218273888839 2.2152107127645015
H 0.8016479786687376 3.07664300718939 2.4537447473394387
H 1.4981291639577543 3.9730999141386087 -1.1567332810098792
H 3.165169137588801 3.269039058804446 -0.4958035415395121
H 0.4265137105919826 1.3093073583534687 -0.725560013075246
H -1.1716568091327173 1.766407116782621 0.08377137157431237
H -2.817791348584243 0.20209684034103986 -0.00958602250492296
H -1.9394847050533381 -2.722165763682114 -0.6743698841860536
H -4.6581935741240645 -1.40525334233127 -0.2661407239056585
H -4.314122854800275 -3.169239893596132 -0.6584593419233743
