25

C -1.363936436044871 4.244610902554336 0.9876462862606801
C -1.4366657690894753 2.942311702102155 0.9009273912228202
C -1.501413443716329 1.6680528074200505 0.6506688216764653
C -1.4567119623329254 0.4795995354447775 0.06592205185630878
C -2.717368659345535 -0.06015812946794565 -0.3559381550362503
C -3.002132922849833 -1.268894089493233 0.03539646997620862
C -3.207538441436629 -2.4921773974563157 0.47324169475323585
C -0.20083404727478643 -0.1806385175993185 -0.10876985707989191
C -0.1595782044136721 -1.5074528404532839 -0.762721432091886
C 0.9146058819796252 0.3721933153560073 0.30188076892332666
C 2.2257177142793636 -0.23531873108212972 0.16011030078102467
C 2.9168225343799765 -1.3107879872968131 -0.28971721448697646
C 3.6693616500077333 -0.23310148730561792 0.3373407822859456
C 4.828733525628434 0.2737103798408076 0.7304979362897559
H -2.231096766696639 4.835740958755556 1.2266942657284954
H -0.43224224766992186 4.743783906756407 0.820391614254925
H -3.4532245620183586 0.4040846901260857 -0.951111080079847
H -3.6934423495210313 -2.54654792748495 1.4128778724086428
H -2.859428010860366 -3.2553479472069475 -0.17112864534718036
H -0.1614343382068568 -2.2677962415519644 0.024726130723330898
H -1.0518997926309013 -1.6365338076251876 -1.4354040893371822
H 0.7401345163374102 -1.630906027639864 -1.4064541679834328
H 2.960330375922072 -2.2808222817060098 -0.7661848335936167
H 4.9261207975054635 1.223483668251948 1.214091823350674
H 5.747120958067849 -0.28108845323864146 0.5669892603175671
