28

C -2.454169794485894 2.8356736142249113 0.3623898353109593
C -1.8778038056060793 2.093412034086911 -0.542346601785627
C -1.2789346061754188 1.287640512680749 -1.370844184917579
C -0.6848658653342005 0.1088533948372712 -0.8340399069493922
C 0.5244642640793173 0.060843959095885226 -0.24168568603879798
C 1.411329434292715 1.1939811292066707 -0.053537441432866234
C 2.5741393854479604 1.2401981132432152 0.5059998697690132
C 3.2947552910519544 0.12365362330708804 1.1042430634703857
C 0.8096735094750843 -1.3314368310391236 0.16068254611449576
C -0.12852302883806643 -2.128134253870951 -0.756637176231002
C -1.3120677847511668 -1.2200027121017936 -0.8307294240052889
C -2.1918362504583757 -1.4446834998700404 0.37981918785804764
H -1.8276364374423402 3.5685657927356877 0.8090838388364321
H -3.4751250086151755 2.6180733449277827 0.5429816819363504
H -1.3050189013741287 1.617567532314847 -2.390300135792252
H 1.0032422065452347 2.1694778773433616 -0.4656520952192038
H 3.0692009979792956 2.2218568897490725 0.5300522202856599
H 4.123936775503508 0.5613622855114365 1.7420253693964558
H 3.7715579947061397 -0.4812639568673596 0.2918523624471061
H 2.686277794861983 -0.5551874172071345 1.7456543984828783
H 0.6065242828077714 -1.561640563235805 1.2091463684880526
H 1.839826144913871 -1.6771643555807718 -0.07723313451789224
H 0.3622158726107536 -2.151593642567515 -1.74096144039031
H -0.3490049199702718 -3.1253085935088074 -0.3416223546738578
H -1.9113567715704571 -1.4230346265853993 -1.7397438488354333
H -1.6153877435872488 -1.843104291813809 1.2411327965771666
H -2.9215198480016324 -2.2314328148809572 0.10652113869668152
H -2.7438931880661137 -0.5271725441339691 0.6537487531196267
