25

C 5.167263406742948 0.35721657577277643 0.6171512612153408
C 4.123187389844215 -0.3991431348210957 0.7840200333386635
C 2.9293919144567835 -0.9014842194957844 0.8686270089431027
C 1.677064850690092 -1.2168032716695667 0.9074646812484273
C 0.4439289246168063 -1.6787690853353285 0.8430128639868733
C -0.34722758021589273 -1.373427216097649 -0.32100721718909425
C -0.9410367040279846 -2.481458050005124 -1.06862946422953
C -0.9415077678786722 -0.07410672731815748 -0.42321290895825564
C -0.416477557521117 0.804624876118648 -1.2617167253171673
C 0.18960432842081587 1.7091942462733287 -1.938920484394845
C 0.8080285731813895 2.797374294575953 -2.3313337565578216
C -2.0951372840227847 0.2842202134849364 0.37009622885348087
C -3.0546876426686906 0.5954392321408518 1.0444467340088506
C -4.202011953187138 0.9941209106889234 1.8607164499733595
H 5.862805859689016 0.5056859512967657 1.4499227803270114
H 5.389479511182859 0.8570359288563012 -0.31831347148871164
H 0.11944705065962394 -2.2647586876164683 1.6925476848398189
H -2.0162277941972717 -2.6761115717024913 -0.8931908444744332
H -0.346890254715826 -3.399033388271903 -0.9264324518820821
H -0.8649732229665986 -2.2498466695819523 -2.171531959989242
H 1.872492901208353 2.7339136299517457 -2.471034366159583
H 0.22040031191430814 3.6946863152421847 -2.492759956952195
H -5.048349291995511 1.3613297140176437 1.2263656557992098
H -3.941456924402698 1.8708623333363807 2.514035747118307
H -4.587111044803866 0.14923780015678179 2.4396764779398383
