14

C 3.339766148136653 0.9157123027309552 -0.3521802167051108
C 2.2145133355895545 0.26014990132817684 -0.2342842036356729
C 1.231137815643234 -0.5338995587418435 0.0016331283078024512
C 0.4004271623636795 -1.542124692411635 0.021790150593615748
C -0.8877038306891926 -1.4969060955839983 -0.7587784215760607
C -1.9302284138847552 -1.1155880773938187 0.2114127947401898
C -2.276129619247619 0.13986852981596437 0.18778927469004938
C -2.565151148695978 1.416134178298073 0.1533971467313358
H 3.8481206090755755 1.0433139548298358 -1.30245073241291
H 3.807589080712586 1.3605056454644122 0.5154605484558286
H 0.5847031900596591 -2.445526056478607 0.5861114890899116
H -2.4335843475938694 -1.7133589222029335 0.919164948802971
H -1.9828874826340288 2.0428350293061133 0.7935552679818596
H -3.350572498835507 1.6688838610392842 -0.5156814659266643
