22

C 4.7010165469406715 -0.3283737229932741 -0.09727842287309402
C 3.4650389325313933 -0.7316261014286046 0.0720484601789247
C 2.2149986512918263 -1.087950181453116 0.16091429825991668
C 1.318039518442867 -0.6118810871500735 -0.8959651718780599
C 1.1997822273546968 0.8400752266159063 -0.8901034336636376
C 0.25735193052526106 1.3437942953973794 -0.11812984332992667
C -0.7967785101043725 1.7300244911168559 0.5756046312053892
C -2.034789389580536 1.791179207053076 -0.1209856801162552
C -3.104589280556996 1.309331528159506 0.4969547399442273
C -4.106923067704206 0.6275815944747779 0.991893043746781
C -4.090243082777225 -0.8428985967846988 0.7594450053695571
H 5.3071002875719655 -0.9785236555762095 -0.668536103233499
H 4.930962094388389 0.5987178804861434 0.360737726999349
H 1.9858622085221755 -1.6899663908177804 0.9991712077786832
H 1.769626514624586 -0.9059557380337231 -1.8893123317882101
H 0.3608587683101671 -1.148363212187065 -0.8421136349264556
H 1.7482870784408429 1.5774159196330129 -1.4086159999477736
H -0.5538481552159765 1.9414573024489807 1.5777480281293144
H -2.19430817179868 2.1805198459952795 -1.087213049643583
H -3.9336694116078235 -0.987993588920164 -0.3333143814562617
H -5.11896122407768 -1.207068368117308 0.9828650099821983
H -3.3248144655216745 -1.3570130437944394 1.374185901261967
