35

C -5.756321074730272 0.22508295965289868 -1.7925224474889847
C -5.108510207222508 -0.35331441776109473 -0.8047065422765006
C -4.408873368778113 -0.897533992004662 0.15547273245801915
C -2.9914093772847363 -0.5865420457083497 0.1495892464263014
C -2.1244557047652872 -1.5138673672937977 0.4042392412567037
C -0.6675453762399055 -1.2498295056509046 0.41099428972984736
C 0.23409286039580746 -2.394935260346774 0.7149634134808932
C -0.19564066980932568 -0.06007439101346154 0.15794967992310913
C 1.228394630988618 0.24852638620785572 0.15344708127293324
C 1.6478820702315242 1.5064756007569358 -0.118923353903121
C 3.120704532435031 1.5961315119074402 -0.07007232427517268
C 3.528804195433345 0.22596287528863665 0.2687347544528674
C 4.878681990403998 -0.2779152916023488 0.45090798518001096
C 5.899643120189496 0.5395097672045164 0.30936214127877265
C 2.4012739109958896 -0.5047568223511442 0.38495605800725385
C -1.1542036130899316 1.0762986226439997 -0.15028572685747904
C -2.5719632396335044 0.7781578630115632 -0.14570663967751007
H -5.804504883560525 -0.35041335269619245 -2.6779487416847374
H -6.137205766128728 1.1842011003844626 -1.563006812441702
H -4.949526911579833 -1.5013472310969036 0.8273936405430388
H -2.4661914596008403 -2.5391483953351317 0.6258188804359165
H 0.8036397113685725 -2.668958840200772 -0.1840537113875822
H 0.7373669510779522 -2.3336707985922835 1.669823050444748
H -0.44409915859798516 -3.31186241425573 0.8429581738225486
H 1.0391649719017382 2.3725733545906627 -0.3489131505293615
H 3.4849430209337657 2.3585673867919725 0.6445771022166423
H 3.477862065285966 1.8019733015219872 -1.1147253538469493
H 5.032839522861206 -1.3058085404111122 0.6978683289368697
H 5.73267358578911 1.5714804368434605 0.06083798021265933
H 6.925494608438311 0.24044437457111748 0.4282688159393433
H 2.481890146399144 -1.5284273046584327 0.6281855101004981
H -0.9441418586334581 1.809043236565973 0.6921856489708172
H -0.772857065767212 1.6148103071596343 -1.0505764626590264
H -2.9854677834444443 1.0383025608587735 -1.1754042645220502
H -3.1724343762630727 1.4823230502867024 0.5183117764604249
