17

C 4.295680332464328 0.19340357065530728 -0.6472941489623786
C 3.256008893429075 -0.5452434602448215 -0.2878383062291543
C 2.190191278826421 -1.199500691312392 0.06679775451743926
C 0.992524995380914 -0.41418507605077964 0.26123647659899035
C -0.16566825968875792 -0.6830526873365701 -0.2685117432822222
C -1.3351239627731644 0.14875247953505788 -0.0332894741374298
C -2.5105012384131093 -0.14130177789479634 -0.5829027875880975
C -3.6923801652774633 0.7070387063539229 -0.33981079489561355
H 4.865887536490493 0.5584632033931743 0.16272758713995697
H 4.4017877219878345 0.3096132318294936 -1.6911786935565896
H 2.321206406172686 -2.247952548882579 0.1747135154434205
H 1.0829473744403808 0.46917794874673663 0.9045617703406397
H -1.218988185659194 1.0125852794779826 0.6039814333440678
H -2.5971620190600717 -1.0030516292047735 -1.2100240300983576
H -3.349846481874686 1.7741022612677082 -0.30104661323719645
H -4.076937829993295 0.4573945489548851 0.6775844478308459
H -4.459626396452068 0.6037566407124645 -1.1179591077544992
