25

C 5.408685444668147 -0.29059460194588876 0.41685589303641146
C 4.159269963569321 -0.10837330805426912 0.016845466525980676
C 2.9048117836125025 -0.005716186572174867 -0.33632439912158996
C 2.0438595701005005 -1.1267744352520863 0.0034731173386375433
C 0.8105014633532089 -1.2456269365653618 -0.754141335783347
C 0.2399529815752106 -0.1269881207761905 -1.107907553929664
C -0.3185475073645769 1.0420250197253391 -1.3229127354663508
C -1.2097415600197081 1.5357319950495056 -0.2805761235621594
C -0.8739461932617553 1.0541803253555586 1.0618540129642497
C -1.8848905234036966 0.3537658894276826 1.53158608189489
C -2.9361202699927667 0.3345464571613367 0.5322763946960283
C -4.22961209357626 -0.38775736639718644 0.7685475980262302
C -2.5615369264055348 1.015158158144612 -0.5252566562423793
H 6.025646944896213 -0.7647793676370672 -0.2976557456442598
H 5.611689465402146 0.062352818273177964 1.3922896106315588
H 2.6752211270454223 0.9031101541912404 -0.8358543848264597
H 2.6086897215176292 -2.0798386897255856 -0.07831321880280656
H 0.2857246584226626 -2.108073610132218 -1.072587528077862
H -0.04024119647750757 1.4764193339072622 -2.2397844165987055
H 0.07702336055097027 1.2656175317487894 1.5587205142070661
H -1.89928568936433 -0.12668614529475308 2.5253730975325768
H -4.035300225848231 -1.4371063782406148 1.1357115311458625
H -4.816710861221182 -0.4751308144658005 -0.16883010040114033
H -4.846325350447167 0.10617387082664735 1.524775122411395
H -3.19881808733348 1.1343644072488046 -1.4056116189487735
