35

C 3.4910336918733615 -1.7335286297993762 -0.3864229490831021
C 3.3205912060864007 -0.6083935978348585 -1.0580982008318573
C 3.096106176994902 0.5365283769695862 -1.6602147735116821
C 2.193767983886859 1.454607907340892 -0.985308896535336
C 2.637094150353093 2.9087767824684057 -1.116257082170383
C 0.7976862687178833 1.366991032663456 -1.3353795153225119
C 0.0671443267182993 0.6647835821311925 -0.481633316750088
C -0.5261163524903087 -0.10553279173147666 0.34682464636364213
C -0.6174776548686246 -1.5491402736271527 0.09433500455253362
C -0.9393278152445222 -1.9725342283352836 -1.2774768243059849
C -1.9793422375582588 -2.744826160732675 -1.4727388620204447
C -3.133609356062262 -2.2717379820259818 -1.0302399565988039
C -3.058091060901578 -1.422346227533725 0.08911261816475925
C -3.68353807570173 -1.3409312764087769 1.1936623635050145
C -3.3166336799758938 -0.33967089281274837 2.178130560906599
C -2.2675675474398327 0.35811927504290425 2.2140719779556717
C -1.0742379320509448 0.5470558307863101 1.5151686888934761
C -0.297581609055431 1.4964394673575172 2.0184754350074816
C 0.5136390805793188 2.3887317984930743 2.51908486671097
H 4.2938689803466294 -1.7094448256504133 0.2997489504639807
H 2.7998378857322948 -2.49272086645692 -0.6324162467390511
H 3.6107024454874734 0.6480332183113754 -2.5786739819369995
H 3.048101723092728 3.1240682552413626 -2.1175147849356004
H 3.388992656695173 3.0673531564092276 -0.31303162219008857
H 1.7622167285045234 3.531927016925268 -0.916017958552911
H 0.21898386260509112 1.7379495309010984 -2.1242796161609467
H -0.9566578510424053 -2.1863601650451123 0.9194977090046231
H 0.48271985539072904 -1.8869719187173757 0.11259712154359466
H -0.3504259088530645 -1.6672956456859103 -2.1106882659045816
H -4.0354092448971155 -2.505848248388806 -1.4952967084642788
H -2.5112061572751747 -0.5138419787976536 -0.12929485838786292
H -4.473883860376439 -2.00338648236564 1.3768209636038333
H -4.057561234358406 -0.17798520150124775 2.991685645278961
H 1.1914196246767175 2.0415693598251776 3.2441159738540506
H 0.3647609304126812 3.359562802583213 2.107651894592562
