29

C 5.945771123279036 -0.9650808484071803 -1.0648564235618676
C 4.723723891971958 -0.4811176859312745 -1.0201479959441304
C 3.516381794494717 0.004612403705172286 -0.8721235570518481
C 3.0788578873911323 0.2692885698908235 0.454145865033567
C 1.9283063569586856 -0.2788064259318655 0.8000801990696733
C 0.7069510262090921 -0.7253238769572619 1.0000348453557488
C -0.3791470817301696 0.1196846401184405 0.6508880357994206
C -0.2675628112319703 1.3899799506844233 0.9120688720698996
C -0.09693489213179902 2.655711356522198 1.1984676070328792
C -1.6123326660126984 -0.2502186919189102 0.03377594367102931
C -1.8389924595156708 -1.636118288332662 -0.29846039846630046
C -2.8209369966866853 -2.2175164193151784 0.3338040978552816
C -3.8287110721536095 -2.7449411846001115 1.0089121625005648
C -2.576401684312158 0.6007112336668734 -0.2593693686220503
C -3.898891238138863 0.9983997608535384 -0.7892730406730855
C -3.0226264549056334 2.036402711264111 -0.22207595212672596
H 6.705298942062536 -0.23275983686392637 -1.1416220946316824
H 6.001240615277399 -2.020925057524075 -1.0171019988852579
H 2.997989322998716 0.14441810782028897 -1.7953843414788841
H 3.5122995804599455 0.8370763039856832 1.2329652779113267
H 0.7098188552903324 -1.7100214354604928 1.4162612586326193
H 0.3500927266981889 3.218046979245679 0.42587330560528014
H -0.43130999149417903 2.9304404746807635 2.1607341956543715
H -1.3193301855996462 -2.2485457878640824 -0.984577565835296
H -3.551890202372272 -3.1845052637949283 1.929179081565254
H -4.76719882330335 -2.650911919193538 0.5319676263192914
H -3.9696999004986213 0.9752326769956391 -1.9025572045398194
H -2.5077863516938104 2.7537351746389818 -0.8923214503627864
H -3.2869793113106622 2.4130523780229765 0.7807280356519973
