18

C 4.039459009287486 -0.11693606251647556 -0.014875334122450854
C 2.7462254076143204 0.006830440473451199 -0.05367810538671346
C 1.5311367102713258 0.25594210401112283 0.3376446841952225
C 0.6911057387432531 -0.8758245374315816 0.3912045762798823
C -0.3678833549347325 -0.9181376182455382 -0.3960030889156893
C -0.6635703057834411 0.18126487158043678 -1.3018428722678979
C -2.0969030293093227 0.35202498921489694 -1.5092023696756247
C -2.8616980589967715 0.220572723196747 -0.4493051755199543
C -3.5459240112975494 0.07268199019545091 0.6651962121971867
H 4.653080053236072 -0.2857169690135878 0.8362654705065335
H 4.4619539928401695 -0.03148434885284754 -0.9596686539694049
H 1.1629268401382982 1.2206633128212592 0.6053320849515447
H 0.8046566136549695 -1.7544662902619934 1.0208578804169253
H -0.18144896695995716 -0.06101369010011033 -2.293562070227044
H -0.2011229149319716 1.120421626474665 -0.9081756398541058
H -2.626049404179702 0.5691244000240916 -2.396035872679332
H -3.8592055179980163 -0.9206588945490523 0.8562564617516218
H -3.686738801394459 0.9647119529790629 1.2144117002747132
