23

C -2.9544374729139395 1.223544324971078 -1.018468333942428
C -2.264122127299015 0.11541790684098026 -1.0244709013391875
C -1.6044199570055127 -1.0115947892255308 -0.9791037681662873
C -1.1492341753518958 -1.4236591235399225 0.3472150281003147
C 0.2800945445575042 -0.9499100897905847 0.5628478289858037
C 0.7492645641889547 -1.3811213438083951 1.944350093372912
C 0.378003688268338 0.5398291118272088 0.3798230625597477
C 1.264667488055745 0.9228181542689059 -0.7864037796968698
C 2.3338112392347083 1.903960650493047 -0.30010369940379766
H -2.3690147494682714 2.0934143830778997 -1.1501646104250471
H -3.998795176698967 1.1163133435188857 -0.883547582358425
H -1.4733391423667321 -1.4997588014210523 -1.9061710715355091
H -1.8125362180859774 -1.1380514626767297 1.1648235953952786
H -1.1251613132510812 -2.5532644175478816 0.3490496743318727
H 0.9397720214630578 -1.4336524344574155 -0.17424543805025305
H 1.00719688694877 -2.445561200085025 1.8829982433984735
H 1.6717819896899235 -0.8263068367625455 2.1987550799444957
H -0.028788518805424868 -1.1599511073481366 2.717606414056934
H 1.7439729449978234 0.01868605319923 -1.2374731446955156
H 0.7120995669513291 1.4538338745559833 -1.5822015873932715
H 1.815243471222037 2.6130736915006167 0.394118752823642
H 2.7589465420031334 2.489318395926322 -1.142807749790193
H 3.124993903663477 1.3326217164786935 0.24357389382903852
