13

C 3.646834328712275 0.5844309772567422 0.27746264004328974
C 2.439324485103777 0.08331530067747948 0.1777015849452518
C 1.219143272873808 -0.27514193703600603 0.017549888668635306
C -0.028504302014398936 -0.6204431262073374 -0.22699932222992245
C -1.0684016501746894 -0.30260293408562483 0.6978211255397334
C -2.2587040220848658 -0.09141752243746652 0.21199075436593345
C -3.4152714207739456 0.09569374496743371 -0.3627413982314005
H 4.421514922620663 -0.019493893840344757 0.7157006174064889
H 3.9127849116986675 1.566368880057309 -0.053004221456463885
H -0.23393380930622792 -1.1473314491034403 -1.1430599836235222
H -1.0100931094547119 -0.2102472574275568 1.760427998357166
H -3.6092561420410716 1.1022469031524906 -0.655604291623687
H -4.015437465159281 -0.765377685973672 -0.4689771397847946
