40

C 1.945470370077736 3.2995778635072694 1.8884393729216824
C 1.6794477742499556 2.115481760285826 1.4519936871079606
C 1.533576854943799 1.0087101550701862 0.7924090968733395
C 1.5544650709017753 -0.17029896599393454 1.5656411626698428
C 2.800601030079502 -0.5303347434076261 2.3265812467223825
C 3.8370892199581705 -0.024497873343809384 2.5069398814743433
C 0.5595512052027939 -1.0326045198117169 1.6510936138871362
C -0.7041483425328718 -0.9772605448657131 1.01348867376342
C -0.7267409305575027 -0.8681891805671277 -0.44392863082833933
C -1.6422373566813016 0.10720345551179007 -1.0599231490173617
C -2.837188625033843 -0.36885750178864424 -1.2390893641787049
C -4.067392010564089 -0.8522859893819401 -1.3116196261460622
C -1.3788267124615496 1.4631545228968645 -1.4505652247145426
C -2.5850501906774674 2.13670438619966 -2.0077940156013194
C -3.0119952347802577 3.2170747414185996 -1.3672447700432693
C -0.00018641470219940082 -1.6384676047278124 -1.2054242108283244
C -0.09070961208862255 -1.445101119880299 -2.6946163244390293
C 0.8479466509659845 -2.678724895563393 -0.6994949549713807
C 1.5589964078600222 -3.412587398563425 -1.570694447524756
H 2.872053791605846 3.7694558002511984 1.8268728406640724
H 1.1337466634998885 3.81231700957308 2.345091226179457
H 1.3999995123892246 0.9616116731055815 -0.2571676673472285
H 2.6536935251451284 -1.5761049850442668 2.8575168738968184
H 4.57592423944634 0.8260931613431948 2.365433140576819
H 4.576228858840257 -0.7149035522584329 3.1961931355266215
H 0.7067665396746926 -1.9198195506134503 2.349762012267171
H -1.5272922895734187 -0.4414826361139975 1.5234732957708088
H -4.295870556966321 -1.2098090519249076 -2.271067319944237
H -4.603718643202338 -0.7986635662144665 -0.4135201739414089
H -0.9448790005756252 2.0504136532491994 -0.6058694473861426
H -0.6070481584724648 1.5053129339042244 -2.2477632436606307
H -3.0743368877953605 1.7633238833669036 -2.888376627400678
H -3.9039941459749716 3.7365280420578872 -1.7552252837564657
H -2.576694840336255 3.6403684596990136 -0.49740160439258213
H -0.39845317726515084 -2.441382001309257 -3.1062236282908144
H -0.8658670798792617 -0.7296759088255483 -2.9957011112030694
H 0.929043183262277 -1.2021826578967656 -3.031418782193752
H 0.9684147576729073 -2.948175371549694 0.32272414777917535
H 1.4972827671075069 -3.2246240541496314 -2.6390746161127883
H 2.212331787150266 -4.207297827033836 -1.2810970859133004
