22

C -2.408737695280574 -2.1070012903490247 0.43822828670780256
C -2.359717329871013 -0.8326446337693432 0.10617040612229026
C -2.2538969193672393 0.41891870365313016 -0.2422772332571085
C -3.4141935759163435 1.2361028704456771 0.06625376894243705
C -1.0225740098302318 0.8398961778394303 -0.880839293367722
C -0.06248098463940596 -0.2523735174615123 -1.0356359211400596
C 0.8212429476735487 -0.4368775902692102 -0.06921141614015658
C 1.558997876364136 -0.3667021864002682 0.9987888271534731
C 2.7485050203821504 0.5038865504876442 0.9589555784417939
C 3.6872070091373366 -0.0903241433794886 -0.0517214081262143
C 4.991298032697876 0.02952174164387642 0.0938502592313876
H -2.8011320016723538 -2.7251989161084507 -0.3183575774623085
H -2.0476625917363074 -2.305981236703474 1.4081302225699925
H -3.418571289059423 2.220020851523546 -0.46420074137377465
H -4.377277418989343 0.7582561255545737 -0.15392585925244778
H -3.420031998395645 1.504482411707541 1.161766424724514
H -1.2862838340388425 1.232411576179537 -1.9072930713354017
H -0.6213848377260883 1.7217241111382238 -0.3396759346832036
H 1.3374134481760358 -0.9046048334820935 1.8929479366930981
H 3.307846100797801 -0.6243838999042558 -0.9123784805217938
H 5.663116081184567 -0.39400390530789525 -0.626624175410377
H 5.378317970108372 0.5748750329622659 0.9727074328652789
