25

C 6.479523653254333 0.34001891151330443 -2.6264954399350877
C 5.877039938463585 0.03798990598590484 -1.4788969699983194
C 4.85168435114194 0.2164137455168349 -0.6516504002390259
C 3.7890715262126293 -0.45591802519989666 -0.6015660568229931
C 2.784285880702093 -1.0810212941339896 -0.5712757924901363
C 1.5000150803471357 -1.8701894924285847 -0.5572202769343071
C 0.519529373843045 -1.0575914801017503 0.05504218220382053
C -0.2740658261594194 -0.1832647309106916 0.4580719950712968
C -0.8801634803782039 -0.22551183336713823 1.7423372740621594
C -2.168762248299117 0.2626416240581124 1.5091631156435286
C -3.1708204488782976 1.259999142085511 1.6600164018248353
C -4.3579624535944514 0.4863138670284595 2.003985440687522
C -5.181362271363769 0.13551336712088122 0.7650381824937597
H 7.030756350509135 1.0857858538904925 -2.8218104669540285
H 6.171850032071487 -0.508020148698739 -3.360329625948167
H 5.0849944331583306 1.1563433328187143 0.018973135377060114
H 1.07109997740621 -2.725568879949161 -0.7300754967194042
H -0.43406085961866375 0.6401620250868943 -0.2733064197711378
H -0.7936693103266 -0.5147286473861671 2.6805542862690364
H -2.7703408356168016 2.131935343977039 1.4752767891003904
H -4.154595609585347 -0.4506140255732097 2.548086730178084
H -4.996991751617951 1.0858851137762657 2.6994883978621456
H -4.945636306132623 -0.8842581712006575 0.43822140120228775
H -6.241253707833618 0.2952779479437784 0.9647345727085939
H -4.790165485893223 0.8224065471310602 -0.032535170475611275
