27

C -5.394875470071674 -0.21047762674360548 -0.2809138522172877
C -4.205263196056552 0.34724481881008107 -0.18070842710378585
C -2.997316997133332 0.8265074454115212 -0.08383805405766395
C -1.9263910385363132 -0.15659800703500754 -0.07522208509679985
C -0.8624149431870881 -0.10254142106696963 0.6887673753245294
C -0.5738646851259971 0.9641000381185403 1.6642938243476306
C 0.6181215025160428 1.3187356030214399 2.0815350982621537
C 1.67069719417035 1.23665857031453 1.3174642420691074
C 2.0963923702026106 0.1725567047820925 0.43916011415497147
C 3.444987984618654 0.2289382675501523 -0.10412660355005336
C 4.413006039215776 -0.29562360353560824 -0.8632194918734769
C 4.735043131278542 0.9650619470622577 -0.17817604416169883
C 1.367923849640131 -0.8801838915760604 0.06479007680010704
C -0.011008607470691413 -1.258721983258492 0.4108465737319545
C -0.7094186908532892 -2.006298582594906 -0.6331403648557989
C -1.8263765303055983 -1.35137095374815 -0.904216908770181
H -5.847373697481426 -0.44946214616485014 0.6461831282962953
H -5.7353514466224045 -0.34411980213749427 -1.274022006794547
H -2.928076218114986 1.8745550020986192 -0.02227503693318065
H -1.4284132777304428 1.4825669755225248 2.0493562474452247
H 2.352136781058406 2.094508464434401 1.3258851177624837
H 4.682644077706298 -1.1223682281154386 -1.519289574150313
H 5.446833008201094 0.9000860394897334 0.6654064658498723
H 4.723486756239622 1.9032817530833035 -0.7460813357010382
H 1.871552837949888 -1.5506600825241756 -0.5900200842702594
H -0.40931147979009513 -2.9313487725456535 -1.1264449885143026
H -2.5673692543142947 -1.6550265286506303 -1.6384073083575756
