39

C -9.161943355910962 -2.3833070288719767 0.539379189590112
C -7.95443690665307 -1.880544849253983 0.656600243851584
C -6.756839459579919 -1.3682261968537726 0.670441470643881
C -6.19361337843503 -0.953145247787212 -0.6070437145276174
C -4.726714895608345 -1.3903046894556543 -0.6462699380367963
C -3.955805550161563 -0.7653578828733145 0.4595032478096272
C -2.914739460495528 0.026390518871594812 0.2460502882359636
C -2.455728444965189 0.33538030579763706 -1.159345804688137
C -1.2160877593713761 -0.36982797113740357 -1.4395358727228789
C -0.15742385358943176 0.017732602811872767 -0.7538641478560445
C 0.850394190053214 0.5540269470776087 -0.09269616887562503
C 1.511626340510108 1.6421996917032202 -0.7422014345006898
C 2.841614175218366 1.7433214551576475 -0.8379131801469958
C 3.5883680576632484 2.8164912976861816 -1.4811044188835982
C 4.894300819249577 2.544222280483 -1.359587705110028
C 5.0557735478789105 1.2852242618633973 -0.6339294205481925
C 6.334158513980357 0.6821212188309544 -0.3197770654395885
C 7.395138927645176 0.1587551231511802 -0.052860480911234256
C 8.650951943609204 -0.4362413260465963 0.2726574001619148
C 9.123238275287207 -0.44473960701760157 1.5089125412648927
C 3.8462446663271033 0.8180417544377004 -0.32928628154184264
H -9.944719718677304 -1.676759472800103 0.6178700139964218
H -9.192850019377644 -3.4279447644461043 0.3811120925268265
H -6.319806617023038 -1.3122231840992002 1.6412480002202388
H -6.180298015378366 0.16922525519828038 -0.6376508576927268
H -4.748051240684549 -2.4989084286787904 -0.4550191417464423
H -4.298083605276612 -1.1724505062483417 -1.6316937959560849
H -4.25656680685757 -0.9647745657722335 1.477996307177728
H -2.394038301376901 0.45125079935034723 1.0837328671331332
H -2.426372758489234 1.429004166205761 -1.3271578060049445
H -1.0029698122904127 -1.155827865113031 -2.1106208831654207
H 1.0240599537542456 0.09335923785323587 0.8378534884021857
H 0.9035513957211582 2.4244630634510953 -1.1789280471259809
H 3.1416162424436838 3.6576486779460975 -1.9564935137653492
H 5.657290340763967 3.2027989951020635 -1.7627952540832184
H 9.213287065465689 -0.8846730658121784 -0.5233153895500717
H 8.514619161443726 0.02351808109195324 2.281946496804343
H 10.069539417371614 -0.8931684014671039 1.7539237337391607
H 3.641316925806851 -0.09675068032223522 0.20696049147095022
