32

C 4.033527692452788 2.358523132144774 -0.033754308141388197
C 4.193088829717171 1.0999977207570166 0.31732143745894953
C 4.280861372839064 -0.17058252171248164 0.6053096993285538
C 3.3629472851688775 -1.0663612245888148 -0.09856650728175664
C 3.313107972255839 -0.8119352952889749 -1.5585728442656974
C 2.0880156722901906 -0.5405297927808907 -1.9276548108921803
C 1.1666866340040345 -0.5753397373065617 -0.7867484183322528
C -0.19328124480197173 -0.36269593082142576 -0.6702146067538222
C -0.7894181600788597 -0.46963090700064264 0.5691154388936704
C -2.2010630409987995 -0.2674730246931546 0.8002022913202912
C -2.9421561286967073 -1.2609657956257883 0.41081517933422235
C -3.7361571377770293 -2.2647864856923428 0.06558893359066015
C -2.8747263711324273 0.8661568790654314 1.3921851526906366
C -4.149994136409771 1.248171996464313 0.7755589198138908
C -4.136687224788492 1.9626805635289943 -0.34578363713237714
C -0.023835024322056586 -0.7901641422494812 1.695816084000752
C 1.3222135620456474 -0.991350442763183 1.525382507291693
C 1.951137434541917 -0.8929606204922726 0.3035341883292711
H 3.331068997176029 2.892050268640017 0.5499548896102617
H 4.630685508782521 2.663669068678423 -0.8539712803082247
H 5.017205063580638 -0.4060441955540118 1.3251960194971106
H 4.196106240125028 -0.854693362465118 -2.2000993491165324
H 1.7627409080033085 -0.31553841311385233 -2.933578225715805
H -0.7858924477074501 -0.11707132446465696 -1.5275665410480908
H -3.8980277123960203 -2.976161782693302 0.8215299734189917
H -4.082556737044148 -2.187593793678378 -0.9248782523462887
H -2.8790282758668218 0.9117977776977491 2.4908573425360165
H -5.068169793412604 0.9374504452756043 1.2510336855876605
H -5.079726483856915 2.2297410444191317 -0.7775435966039828
H -3.215448238646979 2.270497758180106 -0.8166801771651566
H -0.48613739157826014 -0.8777191161139957 2.6843971386239436
H 1.8929123765334133 -1.241138745751437 2.4296794755639826
