26

C 4.950155814042276 0.4332739214784041 0.16344642361205228
C 3.692503822379485 0.21423894137482832 -0.1589496691405756
C 2.4215881744273835 0.007005763780626339 -0.3859798934029303
C 1.5299827115023523 0.07915040038701672 0.771533380825564
C 0.28774242526823135 -0.6965938749477874 0.6051213582926456
C -0.8219679782043294 -0.21147915983541848 0.03084134631044677
C -2.0470940677143346 -1.011818834626571 -0.12050289604171126
C -1.9025480887820672 -2.4041897147665323 0.4599220447970514
C -0.7610776878320346 1.1578076731735303 -0.50539614244163
C -1.685324398795092 2.071674830107453 0.19307400627033164
C -2.340868320413732 1.8293864398789454 1.3065950656844905
H 5.4927588867831725 -0.4301863608110447 0.4254605659079643
H 5.241503501403967 1.4487046898860663 0.11520613208592248
H 2.184663321250095 -0.19143003196326785 -1.3956505615464843
H 2.049693464071255 -0.10715562368259952 1.7100524117886133
H 0.26205583032562446 -1.7164326890672343 0.9640976840741682
H -2.1924769828090978 -1.122931885882862 -1.2485221185420727
H -2.9307129722814054 -0.4719157199606715 0.21007885643774493
H -1.1319484184377522 -2.9669809211414147 -0.10571176384347993
H -2.8690788680581414 -2.940971315995518 0.4291868328256206
H -1.6030103335235044 -2.3246295253245575 1.5156752760720207
H -1.0314620853762226 1.1847453173955516 -1.6065218038629845
H 0.2868685093228589 1.5656046624589672 -0.4986259798241389
H -1.8396166893067467 3.0677951532254824 -0.27587217983090806
H -2.9955039593173356 2.62162512508731 1.695616427190223
H -2.2468256099259407 0.9157027397714329 1.8518196594420644
