22

C -4.353010868908558 0.9256457729525499 0.40803161030246865
C -3.799338959418766 -0.2697626895291791 0.3585909835892864
C -3.167935338913765 -1.4175511011183632 0.27999847873379496
C -1.7907718939589965 -1.3660979123955515 -0.21263614068919448
C -0.9005770800733174 -1.0272916809484423 0.9413248233850082
C 0.36475317423569975 -0.7254943676410744 0.7122161694333492
C 0.8903115402654974 -0.7223117246437522 -0.6532981992766814
C 2.151741304638235 -0.42132424728036905 -0.880070644610269
C 3.055664170516658 -0.08842734521375561 0.1764152503275064
C 3.599410184004305 1.1091349149859124 0.11790466725942046
C 4.09341471322928 2.3178935358212542 -0.009969308560651985
H -4.217185260551324 1.4340678283758093 1.3250987772222376
H -4.855697938189981 1.2091552528439478 -0.4788148373913031
H -3.7419779167961336 -2.2495150646903737 0.5872653014574227
H -1.7238191704265193 -0.6017820226900686 -1.011689541979248
H -1.2723326714586323 -1.024582626077241 1.9592795169325568
H 1.0247166881758414 -0.4777733786799037 1.531622561363087
H 0.22948814327726524 -0.9699126297139911 -1.4697506498393589
H 2.519432998194908 -0.4249059187272951 -1.8958806588534145
H 3.364114419875341 -0.6577880693905064 1.0122057927073234
H 4.9969769325740865 2.366884473901078 -0.5710679480253945
H 3.532622829708979 3.081738999859256 0.4574260274503962
