24

C 3.3067801716587364 -1.8662647184246761 -0.06558744920550229
C 3.0840829063343107 -0.6210541906434526 0.2722255769344041
C 2.783362517721126 0.6106954710062857 0.5728856654508562
C 1.4730493936305504 1.0648294150093853 0.1929116134598257
C 1.237278718738236 2.4228211926633705 0.021405529261702222
C -0.0063054075801145335 2.911086090881804 -0.34383751958617925
C -1.046610611845766 2.0106500261098454 -0.5436090524665506
C -0.8271861061862545 0.6607229226062691 -0.3770377530686848
C -1.9745133980041918 -0.25276622873509236 -0.6038101713543438
C -3.0401833716787188 0.08606704926494751 0.35972580594212317
C -3.2835810572050708 -0.9708181381387107 1.1052052913095707
C -2.410151776617691 -2.058160260686513 0.6905106123914763
C -1.642462010093226 -1.6581612918283244 -0.3019563482118333
C 0.42769966086294586 0.21789452406525806 -0.0125061199137684
H 3.7286825239010457 -1.9993440424258393 -1.0273009313042243
H 3.0354690429259614 -2.5821407356492605 0.6664396940884916
H 3.5484907157362455 1.1446504640349355 1.069680821344257
H 2.0591513499681118 3.1249123856529466 0.17998015734888
H -0.17436464127232718 3.9833816845886583 -0.47452570314400844
H -3.578241320501903 1.0195480517187596 0.493032727844296
H -3.999776631159193 -1.0778289894025463 1.9078118856063715
H -2.348519369461517 -3.0685707084976643 1.0937412666510167
H -0.8942977288358852 -2.250325687288696 -0.8143177186772845
H 0.5421464289643588 -0.8518242858817258 0.1039153333319457
