42

C 5.460508504414258 -3.6436265890067707 -0.7634835511311822
C 5.141323219189258 -2.3962928951762827 -1.036474040412561
C 4.787229111405492 -1.15793204171481 -1.2269296614379317
C 4.039878515198605 -0.5179535984649057 -0.1421865464327955
C 2.6569310715621395 -0.9095194383940683 -0.02136899277766461
C 1.8016314607551802 -0.25858743429863634 -0.7951245014827836
C 1.075423740096717 0.44711118187622967 -1.6231568120273
C 0.9164738345350782 -0.11648480743270466 -2.9518116899166147
C 0.5610991826887212 1.6610124017404506 -1.0789502646237987
C -0.4726091800847511 1.6175428282715099 -0.2617631332933908
C -1.1816608795363988 0.3972116383105786 0.16609673744206394
C -1.9000165575725683 0.612811711960776 1.2472876073540475
C -2.7389038223695445 -0.3336906625703329 1.9744574623349094
C -2.9702633377374275 -1.5499035017385765 1.7483863229511818
C -2.676603456742793 -2.5958355672030797 0.8788671918756976
C -3.226025444310445 -3.8101517805416454 1.08944852264889
C -1.71405431914069 2.0467994253108786 1.6412062647928614
C -2.951357581633768 2.85609261495184 1.4765781298802914
C -3.9254850287457854 3.3176490102936724 2.2364050704365566
C -2.623366875424383 2.936262805128302 0.029191207058401655
C -1.1757295414810933 2.7290647981099845 0.42226203677327306
H 6.39259871873639 -3.76378652005111 -0.2776359526274479
H 4.74207280300474 -4.357822719441611 -1.065694175041759
H 5.083517093055635 -0.7503259629839202 -2.1550272989069796
H 4.5782996191652 -0.7082603421884157 0.8191718799939693
H 4.1150179311543456 0.5916284377441419 -0.3008658159626828
H 2.164084554064612 -1.6236773859412177 0.567438408710687
H -0.10095673834825115 0.0947204886474502 -3.3868328674707646
H 1.6258415093317122 0.3729110640819989 -3.6634953754670168
H 1.0643188898291134 -1.1891492937189603 -2.992223793304368
H 0.962065710009064 2.655125874554576 -1.2872469720950703
H -1.073174828759826 -0.5153944473685116 -0.3898414584211196
H -3.2576759938099213 0.09496674579811643 2.8773658472139436
H -2.0207457971991842 -2.5583681787568757 -0.00320944047468155
H -3.009656797542012 -4.6400014328669466 0.4223245024683163
H -3.878827244451066 -3.9056812066170647 1.9411615973341623
H -1.1485739319869548 2.2081129713860785 2.5611560272926366
H -3.939102643224025 3.1158666123673147 3.302009998081217
H -4.728467257887933 3.9051930891825486 1.8142886898095711
H -3.0516402634835345 2.0835942757668517 -0.5151430150762737
H -2.8042290691055736 3.9192216579315162 -0.43973668607636207
H -0.5991888776188679 3.639546173078438 0.5775581898851123
