30

C 5.683889675820477 -0.45906596409301054 -0.11002485551238939
C 4.744188059257608 0.4051426562062303 -0.33706230378689467
C 3.6927365386063857 1.2138119577328648 -0.3241660205734531
C 2.8298366192595013 1.1938538040999538 0.8156158089983129
C 1.5543579449293832 1.4024246500717625 0.5581280558730327
C 0.30770589071371424 1.5414922906445991 0.22432458990773896
C -0.3991642413814894 0.27140216778381154 -0.10967206304985427
C 0.14527929972921602 -0.8338154612025401 0.850711725245558
C -0.09060022996429125 -0.2024395606276871 -1.4453480473566251
C -1.022858310039413 -0.6734400724236662 -2.2496039857645136
C -2.4211657192687768 -0.7288894475025076 -1.8345698346767532
C -2.7695690481296724 -0.2891652987549432 -0.6556495725145899
C -4.0413024916278975 -0.19275151564916812 0.11313607862030123
C -3.752179356220399 0.003098648815314746 1.396558833841434
C -2.261339934454129 0.05626637603739579 1.601070316928442
C -1.8122825770196775 0.4563592141868094 0.18256686213004142
H 6.577924862086904 -0.14435543823786898 0.3758191608743355
H 5.554849277008396 -1.473629534091073 -0.4070317209959692
H 3.038159795558204 1.0383924540397529 1.8377325115244265
H -0.0636345749792694 2.517717034117062 0.22364610736525775
H -0.37704684875594885 -1.773790525688745 0.6639483500466804
H 0.12995884695241317 -0.4765242796016148 1.88545894356399
H 1.2001687465237674 -0.9751620385919695 0.5351389368955184
H 0.9404688272485281 -0.18114826000535877 -1.8269497017292875
H -0.8022750965197466 -1.0442988584893989 -3.2604499375282
H -3.1858166714019966 -1.1257565312489686 -2.4772862553702923
H -5.016703119794411 -0.27013394259300677 -0.2983861005502384
H -4.438663163338571 0.11546280701198441 2.219799032118923
H -1.8543442142450426 -0.9401325702188075 1.7965744222435793
H -2.0905787865537704 1.569075238272629 0.055970663231231364
