34

C -4.387559477896901 3.9776960704068927 -0.46430911932314906
C -3.8170780705694694 2.8835943884063004 -0.8259108769072686
C -3.1404500242086244 1.7995726805271508 -1.0280513190042104
C -2.4840404818168205 0.6991217697370709 -1.1581952267886055
C -1.553273597259003 0.1471160201205808 -0.15590956779055673
C -0.1956816720124488 -0.05316348174773206 -0.628527264576809
C 0.8847190723635231 0.5845581548139482 -0.20241895024986836
C 2.2404371924187867 0.34461970065210235 -0.7145783360560267
C 2.9292572504569803 -0.7805508554196054 -0.055359422005561536
C 4.233502249014982 -0.9438757794855446 -0.2100234511283099
C 5.110757429252984 -0.08154868968219237 -1.0073691264128644
C 5.9974248902155916 0.8163457506177111 -0.1716332286388296
C -2.131982956496701 -0.9498895652628682 0.6334153489340175
C -1.8832446472482718 -1.3486596261702493 1.860975092445052
C -2.7067888418210737 -2.485595348939008 2.220561063869026
C -3.4672886295930154 -2.7783744917300126 1.1895298273741441
C -3.17488591977521 -1.8376757783705964 0.09501939076536728
H -4.123891783641804 4.934858363217114 -0.891778364855585
H -5.161988825870265 3.9780733241000354 0.29084000230208595
H -2.620833249467524 0.12623877302599057 -2.0752650760944045
H -0.028699232914428364 -0.7934480462744727 -1.4069277192086138
H 0.7477789329330923 1.332219376931394 0.5773877106098418
H 2.302697780056315 0.3177658878224307 -1.8047522655020762
H 2.419823436865004 -1.5084467666448327 0.5696280277295269
H 4.504434203638471 0.5027588917333669 -1.7333297819069489
H 5.755520975338256 -0.7596362898204797 -1.6353326374158386
H 6.458304422126979 1.5708302841402102 -0.8394011468530533
H 5.395963637278252 1.2959496929185337 0.6237245614934358
H 6.774180527633075 0.18219060244309582 0.3166390405732886
H -1.1450733170173568 -0.8504334303978857 2.4763876627624937
H -2.712977964175739 -3.02574041176695 3.1803352679649994
H -4.212486573243382 -3.600136650381561 1.142214757754069
H -2.727363821177121 -2.41063966149942 -0.7530861651676123
H -4.079212913388758 -1.2856948580140704 -0.24498643479588111
