34

C 6.1859733387581715 -0.8390769301447172 -0.4955569044707106
C 4.8779214103104085 -0.981320152045381 -0.5332848857867024
C 3.5704552154771885 -1.0357487373879044 -0.5077839751671203
C 2.888204583193833 -0.04349140620778973 0.24123156749604407
C 3.1431380549992363 0.48330551362363444 1.5716956094933787
C 1.8479985113640305 0.4957309987756651 -0.35684137531432286
C 0.7319037455676413 0.9203665451664168 -0.9101387341470168
C -0.4329994397033951 0.20074392035475608 -0.6264308349477793
C -0.34821629711639485 -1.1353558420306145 -0.48860830887950196
C -1.3995775886773276 -2.1185154252056164 -0.19561124325884613
C -2.6192409564664527 -2.204365928709763 0.2806477965356099
C -3.687079235073071 -1.3961747812985164 0.8126673909620722
C -3.7757262366405304 0.0077942713449806805 0.43895464746935997
C -4.553788044233773 1.119589177747504 0.3446858845409
C -3.648350741201394 2.0025925495017733 -0.1621507043762786
C -2.836999754329878 2.9599120319260837 -0.6745084771096257
C -1.5468440573640436 2.5020819873167404 -0.9326924644464165
C -1.603743660278594 1.1061415789604725 -0.5225511172879896
C -2.7674371451537154 0.8154561461601545 -0.08989687859467563
H 6.583433156496755 -0.22883503526792262 -1.2630967402291389
H 6.660622922380912 -1.3541035345745662 0.2979541173670605
H 3.170384122189197 -1.8514257283263713 -1.0759209065319872
H 3.5889448610641335 1.4936413119248446 1.4805478742791742
H 2.246175670230625 0.4907665799330368 2.2325995130129885
H 3.903131388671178 -0.14838277639236433 2.0897721577004944
H 0.8986660817462251 1.7759925675670076 -1.507992674977631
H 0.6411003759480856 -1.4923204410929323 -0.6179904970055224
H -0.9808881542701079 -3.112569288119278 -0.4876875679771959
H -2.921876758962262 -3.291461232344892 0.2594599584151403
H -4.6678650449298384 -1.8710644056702725 0.4977020505153939
H -3.7618301316605454 -1.4280761464693288 1.9375487114739616
H -5.627316019924453 1.12989230267567 0.6461408022527328
H -3.0475702699740723 4.0245557302661386 -0.9106055835101353
H -0.7107039024388685 3.0037245780417656 -1.323620412374523
