31

C -7.15716814171588 0.2777646083060871 -0.18868155682632035
C -5.967229708979936 0.6571806622386842 -0.5477566938827865
C -4.7364611754156805 0.9673072594837134 -0.8227383354895276
C -3.4742497997163366 1.2757292954501411 -0.9177844489985761
C -2.451187535090452 0.47919622166866743 -0.2725389949308033
C -2.016517033739483 0.6455549300581114 0.9481321665844769
C -0.97717569561145 -0.36950121451411383 1.2177795203792015
C 0.2380355527369706 0.27462602401349334 1.6921060994480268
C 1.3822885849175393 0.2879747982690803 1.0416022978383441
C 1.6250446272010066 -0.3197644129658093 -0.22567228772452907
C 2.555746802174064 -1.2152628510667307 -0.3189198630028187
C 3.625612819933699 -1.9493541329836277 -0.3579905366949335
C 4.917890952089886 -1.363140956393806 -0.6332068199824249
C 4.907000175085753 -0.04882573665215396 -1.275833836726264
C 5.164066183054848 1.0836083318456116 -0.6350351125103476
C -0.8821878983437348 -1.1343454768758456 -0.01927740919580254
C -1.7523969945230395 -0.6238589934091651 -0.8809797726338068
H -7.880559696012136 0.9657459724795767 0.19564293738546096
H -7.411336737399506 -0.754985218388685 -0.28399075100263554
H -3.1570066727947883 2.1414015083977063 -1.485635520190115
H -2.368323618003936 1.4206677214406933 1.6659798996935986
H 0.2051698113576905 0.7844045462209057 2.65477715416296
H 2.240086520303437 0.8080668684100119 1.497378599855993
H 1.06446348086191 -0.03552602909421729 -1.0466657471006466
H 3.5243723619489495 -2.9689887260284973 -0.18366583054980948
H 5.64583006499649 -1.4217038298912856 0.20058057977715374
H 4.679042992529201 0.023080666636291665 -2.3302857181191543
H 5.4033953749008905 1.0722766717228855 0.4429840713202039
H 5.151755467097757 2.0491089041228796 -1.126375117560725
H -0.22132974585349763 -1.9800108536142604 -0.21745753942330445
H -1.876671317990285 -1.0284265588861738 -1.8998278575698742
