35

C 5.980615736676597 0.7933668783664918 0.9600890311282119
C 5.217698705873045 -0.259744780245956 0.7735883163994435
C 4.365146217072787 -1.2480553096820437 0.6259034883626104
C 3.0219865550785743 -1.0204537193934464 0.9699514386734924
C 2.0764052703659184 -0.9327734567338841 -0.07593155217108577
C 2.679570542841905 -1.0971646596577864 -1.3374548572045755
C 2.2364191935025173 -1.1366093001874413 -2.5309855143026367
C 0.7574330972199335 -0.7806723983129955 0.40590458614310143
C -0.34201829092756253 -0.29847656977863124 -0.07670961374668986
C -0.526159077754984 0.3037163310763495 -1.4110616876859852
C -1.521595419799889 -0.39857452796243137 0.8272771880384773
C -2.7424843453300096 -0.06965791117558928 0.5956080941466184
C -3.711014435343454 -0.2863258721926814 1.6998783681353749
C -4.987408897575559 -0.011278159455738858 1.61587683473311
C -3.2665064626403733 0.47431842496319443 -0.6031326454025229
C -3.8187632700983296 1.6754139992018187 -0.5160301506277711
C -4.3329883782730985 2.868489610021978 -0.34367821168784046
H 6.415413875323905 0.8558611791171119 1.9207900255708865
H 6.055384619708701 1.4350675747918418 0.12510480646149447
H 4.831800658648598 -2.141104160230599 0.24332654818059554
H 2.6607938752798788 -0.9074251669509777 1.966828291403097
H 3.829599799170425 -1.225155382713053 -1.3123567063805681
H 1.2392475167341503 -1.052085081232953 -2.8840302588669626
H 2.982320865425229 -1.281074499721363 -3.361461843093932
H 0.5776585094910555 -1.178777302315917 1.4869415819830838
H -1.1923335690653234 1.230968182581487 -1.3614250826929486
H -0.8652929500626049 -0.3865181653077072 -2.167455257933899
H 0.4418531281761668 0.7631276891030075 -1.7239358267896754
H -1.2988973107683488 -0.8154511806965908 1.8364932839877404
H -3.3786211009793474 -0.6991778278714653 2.658856124193929
H -5.401515032913539 0.39515852845374116 0.715000307088081
H -5.678970751173521 -0.17582304159218248 2.433990426581934
H -3.292717789403995 0.07234174317657463 -1.585084690671224
H -3.6511004312869964 3.6664191892530336 -0.4766913204208612
H -5.360960653192028 2.8681291433052 -0.09398352153190329
