27

C -1.169884500073345 4.115334851315607 0.2735020025117311
C -1.0917589988356093 3.0106961145465894 -0.43983499336172666
C -1.0299961696206217 1.8768561637671108 -1.084976857773961
C -1.2831947080341242 0.6951333138812494 -0.3084125195056109
C -0.3671259373051692 0.2628908256996245 0.5421559386939583
C 0.8825827793200319 0.9190385110306171 0.7339149353393845
C 1.9533247142291474 0.16528319513705483 0.5343801546220722
C 2.9565078550542108 -0.6257275926642598 0.2418621879404173
C 3.3665515940469426 -0.6242918627698039 -1.1586084723514742
C -0.6610693144478519 -0.963848534750113 1.3309134607645299
C -1.9678848530109068 -1.540745136811428 1.0455810377275627
C -2.0095729976334367 -2.498661563197155 0.151734545103326
C -1.9491811037857556 -3.4525544440474145 -0.7577817610281031
H -0.25905186834469307 4.41679824109985 0.7164286410276339
H -2.1343464606125626 4.548525598057961 0.30550263449502446
H -0.7992853309229809 1.9617476598666879 -2.110352594875438
H -2.2237168433876273 0.18676935743473305 -0.44138640432008347
H 1.120438699859756 1.904449603728827 1.0071534893006011
H 3.335859898607767 -1.1636852725672933 1.0662363412363283
H 4.018161550743703 0.2625554025737127 -1.3772402930110823
H 4.010991316342667 -1.5190885669546947 -1.3436557332570507
H 2.525034297717477 -0.698327413865292 -1.8778404983632424
H -0.6312750841337339 -0.7375086452692479 2.4377945204475364
H 0.16924583310757657 -1.6739455893379929 1.1648359335145189
H -2.903641577048391 -1.2933275375431965 1.4632870582341928
H -1.7916080968794204 -4.42100798886728 -0.36287010695811484
H -2.0661046949533346 -3.113358689494909 -1.7523226461533172
