14

C -3.863567578125294 0.08042229829127925 0.03865304755385263
C -2.649487801240465 0.2824086654813469 -0.39107892601147887
C -1.4135842177501812 0.4788143554348222 -0.7353966384584946
C -0.15030857735865966 0.7748660599022539 -0.8656303935183854
C 0.8492583772252618 -0.32125591891831184 -0.745368195802928
C 2.226771948168876 0.17616150220905988 -0.7231269762726219
C 3.030937841244421 -0.04838345541344098 0.30904316344165933
H -4.490810044532841 -0.6631244806806712 -0.403006619211996
H -4.262003662076823 0.6585930333076668 0.8488378124648466
H 0.6965675199664535 -1.0520140044333735 -1.5933398031353292
H 0.6457942802423244 -0.8215134872447554 0.22300513323120136
H 2.6255429951225864 0.7476954953740943 -1.562867245639527
H 4.052277451120471 0.3160581268762783 0.33417480092983254
H 2.702611467993844 -0.6087281901862496 1.1781871753583177
