32

C 0.8526187350528612 0.621098804088219 -3.4536509782136573
C 1.1174941204207924 1.8356302615640534 -3.01526614246525
C 1.367430382231436 3.014108452899573 -2.4931114640299783
C 1.2314265219639806 3.1299215874667476 -1.081319287460544
C 1.8235237969707068 2.1812546704831206 -0.37173951617503787
C 2.342331137183536 1.1666134455475363 0.2382198342990875
C 1.5416483798143674 0.01426353694671338 0.46354486099782655
C 2.008265638957761 -1.0750112372015252 1.0874153195437268
C 0.11999822346904182 -0.005749206128127435 -0.003056266658690228
C -0.7647621408302816 -0.32686239758980173 1.2208964224584595
C -0.5768626385590572 0.3753956360995981 2.280938939367296
C -1.6948963251776294 -1.3921516866709163 0.993615716145576
C -1.7160879191759533 -1.9990309381844809 -0.2251711965222308
C -0.9356023673348118 -1.7565310230030269 -1.3915333769564617
C -2.6466116172963985 -1.9153298050595047 1.940820465566762
C -2.930753054575855 -1.6245634650665925 3.15475935194454
H 1.6912621366559442 -0.022177060914766 -3.4894094853082724
H -0.16094296973810857 0.46264506964643365 -3.7064283444669006
H 1.6458608412228846 3.748245345361752 -3.2072605805183123
H 0.7357073545663231 3.84108298290725 -0.4808109061332482
H 3.367327116748735 1.3147862382033302 0.518083629094711
H 3.021986210215904 -1.0617217150146552 1.4221411115218536
H 1.4012893592649296 -1.932526437348741 1.2513286809855955
H -0.17548426550469773 1.0029178927345765 -0.35474187760414905
H 0.21780673891021543 1.1626190850541842 2.2198258224371434
H -1.0535899667896318 0.32427142124269365 3.1941785685302033
H -1.1466983797302954 -0.7548332748680221 -1.8691554169797486
H 0.1591767596648139 -1.9630912461063086 -1.3399860691152339
H -1.2997608309942785 -2.4739781672084717 -2.2169748787331467
H -3.2668602759217777 -2.771494318313708 1.484729712885441
H -2.5181820084503204 -0.894135431630467 3.7933741776366574
H -3.7580586932401303 -2.2256670200540998 3.6729251905363616
