16

C 3.088270778714108 -0.08759426958039279 -1.0210306461749303
C 2.0659036757145763 0.5634003072669003 -0.5211998831817962
C 1.0205035046947042 1.1246575931468763 0.007321004120215079
C -0.09042877950119464 0.20395174950168987 0.3519055680199943
C -0.12892623336497647 -0.828646472562237 1.1118500797266289
C -1.528344184159364 -1.0839468418544147 0.8697869903423492
C -1.469143325113766 0.08179470648295725 0.016882730530180412
C -2.2951126687474375 0.7699057425004172 -0.7527712524264226
H 3.806180294648809 -0.4300071656122414 -0.3082706982193225
H 3.0663890833844007 -0.18994145392430142 -2.0778194636108394
H 1.0626056888096114 2.154025099710755 0.13657157476940993
H 0.6242412610844565 -1.3427157472282962 1.7291480960880792
H -2.2155577116363325 -1.0094167106354166 1.7522820850854974
H -1.6546370211712564 -2.0590999060953212 0.319790345589653
H -2.0001315867427953 1.6452686630843818 -1.315761238962965
H -3.351812776612259 0.4883647057983444 -0.8690318600069871
