17

C 3.7931269329823922 0.27258612374993413 -0.07410905153962491
C 2.5863256873149467 -0.13943878502372037 -0.40934756117580984
C 1.3531522916474088 -0.3891705043357785 -0.6964161429532345
C 0.16576248765477636 -0.9234195002014334 -0.9091263985082204
C -0.7129171921585671 -1.1021209541244013 0.2914650434737517
C -0.6753341125401895 0.1114317525588475 1.252909107156813
C -1.8883528248678665 -0.24482023061717073 0.4986548995529185
C -2.328443642183543 0.5652659063363306 -0.7086331909074381
H 3.9940761039255213 1.3072264060314602 0.1629144449930672
H 4.595142717670478 -0.45534934618490697 -0.03922632628596639
H -0.1353959712672401 -1.2087423087958624 -1.902426367128621
H -0.6297869988508807 -0.14398199450463378 2.335269209194921
H -0.03409670509673824 0.9551905673588444 0.9821174110019908
H -2.715035184987569 -0.7120427305528362 1.1046218992997534
H -2.8509414923003513 1.4869372304395891 -0.4443985012487636
H -1.457821145363239 0.7042232941094857 -1.3790173209027525
H -3.0594609515793105 -0.08377492624375549 -1.2560027049195936
