13

C 2.7094861609917555 -0.2133140779412304 -0.03721809414841325
C 1.4267813678040282 -0.458132725708881 -0.1811418758959449
C 0.12965845113276245 -0.438469985619839 -0.08784616376974329
C -0.7662131139564852 -1.5343112956692775 -0.06952743711490281
C -1.814426298680347 -0.6927381737890327 0.04161912579271305
C -0.9579940204583448 0.49095012647657943 0.029852723109547976
C -1.1019984932506628 1.8019093904019936 0.09559839752279728
H 3.202542888694266 -0.17119086704032588 0.9029979295060447
H 3.2046146257497994 -0.06093766655089541 -0.9433720458165341
H -0.8024211968312965 -2.628912206461194 -0.11313745982855762
H -2.888402202324795 -0.7976774139825298 0.11463645308077297
H -2.087852585613476 2.231901181071238 0.1848753156201351
H -0.2537755832572265 2.470923714813367 0.06266313194208378
