17

C -1.6528628063773854 2.020075802403845 0.9798212392617994
C -1.088496646127077 0.9893901488693526 0.4222458351413952
C -0.7419631358293491 -0.20059145386155486 0.057170084270044406
C -1.5148723612450299 -1.415286596930642 -0.09236313098700773
C -0.6958657862448746 -2.4023516465778 -0.4966684412858049
C 0.6327932920245934 -1.8450626217266948 -0.6184743032635796
C 0.5972485582412457 -0.5367295108541575 -0.28781350200981454
C 1.7960206362772846 0.2739669490969321 -0.3208583666707229
C 1.8717940162054205 1.555631360727169 -0.020359425374903952
H -1.6964954531254008 2.1573411526819584 2.0145998803596354
H -2.0597165717159496 2.701380266221615 0.3003447301084345
H -2.5784882260887168 -1.5072046053151864 0.09274164539337319
H -1.040203367553161 -3.403537607518067 -0.6770896981926394
H 1.4940540040287484 -2.400920921596554 -0.924996139673238
H 2.7503694376871515 -0.17939764696915272 -0.6169006990115288
H 2.8708157700632535 2.0278573212176787 -0.09774413220001685
H 1.0558686397792982 2.1654396101312483 0.28634442413475997
