13

C -3.015029814998213 -0.2207709565719108 -0.15682777543722665
C -1.8711177835704424 -0.04888879229559085 -0.7877656209714027
C -0.6048400598895428 -0.051630624197449085 -1.1609612389294763
C 0.30935822772405686 -1.0416004167488773 -0.5161374999895088
C 0.9716490306330653 -0.45183401476031204 0.6865620517331118
C 1.7278528097659456 0.6177976471788159 0.4861075435017059
C 2.62015141788594 1.4417806171260046 0.011250656244536628
H -3.709136646087568 -0.9937307424109412 -0.41727342852642146
H -3.2408112215332476 0.4421509743517667 0.642752177989951
H -0.21073614409609753 -1.973594293982196 -0.23188242747199606
H 1.062509384769033 -1.3276914437387584 -1.294706141837232
H 3.6485575746465524 1.1714603498267393 -0.1357802142175409
H 2.3115932247505357 2.4365516962226925 -0.24801495205707902
