19

C 3.6231188852706624 0.7255584254582748 -0.2269183830704355
C 2.5404176452860745 0.1093871226155215 0.16066641857113115
C 1.465148763628031 -0.3021370585470381 0.6995283096309999
C 0.4407477464512553 -0.9574277868651568 1.1798999407220556
C -0.7092079325172034 -1.3499146672416564 0.3734830691645899
C -0.8432090577660244 -0.6651300819096767 -0.9376924773448899
C -0.9776901062816031 0.8309650427118342 -0.8346534577992396
C -2.2024438966358946 1.208309001333741 -0.029970566971980795
H 4.554609077145728 0.6935474790341398 0.3302155105244162
H 3.6231941053492758 1.2990785837826 -1.1354923664623662
H 0.43644346124059125 -1.2271936014661284 2.22909451013406
H -0.7509055780390744 -2.444460734856226 0.19812317644633826
H -1.6343603081532885 -1.1039070296348037 0.9738729554023213
H -0.08345366068259868 -0.9836926974870245 -1.664909869099798
H -1.8247274651238994 -1.0247290490211998 -1.373379295286492
H -0.08633969235766639 1.2922195047993763 -0.4132373144383343
H -2.418854266412568 2.2795574775454623 -0.11707790610979356
H -3.0995397793947 0.6780173590107103 -0.45075998051656746
H -2.0529479410072207 0.9419527107374631 1.039207726503939
