33

C -3.5518668831439353 2.948414974355431 -0.6211457891941092
C -3.3774024414587718 1.7642019714809327 -1.1528256530179277
C -3.0722558229918424 0.5801706559767182 -1.65524344987979
C -1.7870230489206982 0.14107378190640876 -1.5929778806722006
C -1.0383341650915636 -0.6414919895583575 -0.9551383379475086
C 0.37726398341034956 -0.625294804582098 -1.4573909938514042
C 1.1218527991522869 0.23670535979251575 -0.8515939513292545
C 1.8781761403477817 1.0529643170225265 -0.13735560084801557
C 2.4824903805731133 0.47828994529205654 1.0534672758263863
C 3.428373752375945 -0.5976769191378404 0.6359066875839353
C 4.711506007586778 -0.33210305771739823 0.40870783785241244
C 5.200996096343499 1.0585117849955796 0.5755674302990079
C -1.3106642006111437 -1.5264477589718095 0.14887050377948954
C -0.23898525815619626 -2.251909862845404 0.6104755481903686
C -2.4992595693641007 -1.7986462541022974 0.8662777223505492
C -3.5894762144341463 -1.1975773960162464 0.5536920691640429
C -4.866582911211431 -0.7805804385723549 0.5362577562698442
H -3.790962860812091 2.9454812905600285 0.41143580154661696
H -3.431350090010147 3.7615361892394152 -1.2893256893450686
H -3.967705711316136 0.11101077719853375 -2.070326185715705
H 0.7854939074470626 -1.208905990658544 -2.1994046942962666
H 1.9316515035061546 2.022854097783891 -0.5460949764759433
H 2.961770135347979 1.2125738342775205 1.7312104694984771
H 3.0168755993573 -1.5937911076693645 0.5296429200228826
H 5.353331304065529 -1.152453436059651 0.1076218942831433
H 6.133044964208265 1.2545650090520397 0.01893737758961584
H 4.40758277854474 1.8038603149413885 0.37686217908817926
H 5.463784407483947 1.1868545078954464 1.6621568789517698
H -0.38532939170585995 -2.9129396377335754 1.415589384990397
H 0.696126999500288 -2.116386344257142 0.1354651374234034
H -2.5763593620867247 -2.504170598855513 1.6971999073147825
H -5.450237010107231 -1.3679548606480556 -0.1001614644924107
H -5.016525817829202 0.049261645614799565 1.1536398850402563
