11

C 2.798827368173974 -0.3425204352781025 -0.40075107449785724
C 1.5907925391972693 -0.09223427757923812 -0.011906561940410466
C 0.4551976169072814 0.40399262625976656 0.3926858509385402
C -0.3215842758243547 1.3918093202330897 1.1327392525342879
C -0.9146869746460644 0.391913086604854 0.4443575395889405
C -2.282971641742532 -0.12220981511137143 0.13721062847394228
H 3.3695667757552648 -1.0093094156198106 0.211792732051519
H 3.2363872550175437 0.07896193009742941 -1.2848937441747903
H -2.2018164470837855 -0.9036172042760527 -0.635569801079977
H -2.953431755139467 0.7110999427218214 -0.20587209877325938
H -2.776280460615091 -0.5078857580523977 1.0712102092664189
