49

C 7.875312317055226 0.4874229210525354 1.9206024237309025
C 6.72063919080909 1.071052340504775 1.8881407484781694
C 5.7223214448204 1.8346271650273862 1.682687316256749
C 4.752823815188483 2.6148968869406306 1.3151649697906964
C 3.344818104589794 2.109605724762894 1.2044323935260708
C 3.1882748472582167 0.7425770823197315 1.7486584603970727
C 2.9236259614387397 2.2649320067150045 -0.17758329886292043
C 2.4499335518519048 1.1966047844200944 -0.7651819996503906
C 1.9929906228898386 0.09383410664075602 -1.2643062273003467
C 2.776997131322642 -0.8043660530218972 -1.8955829046941384
C 1.8940294557622728 -1.8308120822140264 -2.267359954128299
C 0.626896938048314 -1.4920258452648867 -1.8383271717236278
C 0.6927691230459931 -0.2606925336024255 -1.1971036849491712
C -0.4978100053686449 0.25377091925915846 -0.6897568309341459
C -1.7098254330455582 -0.40628043268413644 -0.8021774365982675
C -3.031102160280963 -0.19052130809533022 -0.42781405898595043
C -3.4658345045001733 0.9981683909806215 0.28910948757426586
C -4.752893004622246 1.098978357318937 0.5958132363765345
C -5.274026118337878 2.2928467788001092 1.3324742401498846
C -5.88855359352213 1.8410637069055944 2.626262502294623
C -3.8067645729808195 -1.2652371207245214 -0.8462912619990287
C -2.97359590204162 -2.160240009384008 -1.4855646175681354
C -3.1088921578306477 -3.3955442273819263 -2.11523261158581
C -1.9591607740172192 -3.988925675632259 -2.6564852256747864
C -0.7187862542330113 -3.3933378121659485 -2.583904328686491
C -0.578476539446155 -2.1717410046275076 -1.9625032426841222
C -1.7121983879531437 -1.6117079423578882 -1.4421190929170247
H 8.02026176422365 -0.5465613733977197 1.5711573213744667
H 8.77133011550435 0.984827045834628 2.2954786525990905
H 4.885625675013861 3.6674733150016263 1.0661644432868176
H 2.7343398429032266 2.8282451567061235 1.8266839376587953
H 4.0440312603594215 0.08229207421815961 1.5039096140072965
H 2.2217576790117954 0.32822234675481804 1.4668378117860545
H 3.201317590910559 0.822077202907535 2.8758522325300997
H 2.9382183470675587 3.115869497529778 -0.7956469133007259
H 3.840060968662951 -0.7793743369048521 -2.091239689307025
H 2.1559651620303546 -2.7366798091918425 -2.800099097057785
H -0.470425839827905 1.1928372927914428 -0.19624436463721356
H -2.801319926910755 1.778330406727937 0.5728222989475635
H -5.471516717967041 0.347934194884482 0.33822393361701397
H -6.035380591960822 2.78648554311247 0.7016853744343395
H -4.466598413317256 3.0094490054324714 1.567574752461254
H -6.979552212708072 1.9683610800911833 2.5794268909884597
H -5.684578891707197 0.7652058126777378 2.8336743836779954
H -5.468175744622674 2.4019218544497574 3.4941790005085727
H -4.856447553717094 -1.3644031187122296 -0.6926287155703443
H -4.08186437745583 -3.8448014875829357 -2.1626345152089868
H -2.117653640349824 -4.946259835601811 -3.1339242561129885
H 0.13709240895349406 -3.8736497407418 -3.0073049263154354
