25

C -4.946089601053442 1.430894251668575 0.8868570820938814
C -4.21268395223322 0.37079276451953835 0.7021289442458475
C -3.4688734516705293 -0.6154097537606008 0.2893404893754984
C -2.938844526141377 -1.6082199037553468 -0.3678043819883531
C -1.6876001555945448 -1.391489914642828 -1.0849113316426817
C -0.8761901168208448 -0.39625112759896075 -0.7643724739585548
C 0.3833766017838478 -0.17138989643247557 -1.4800909900397254
C 1.5989382905041973 -0.24941211624258042 -0.5826513345563074
C 1.5813741107705126 0.7565693348841674 0.52166825448747
C 2.8068096447311723 0.5873198607573219 1.3255544686066971
C 3.920982878135418 0.5728711174754403 0.6487563287921948
C 5.019028945286953 0.5661848646215324 -0.090905636741169
H -4.529172736865905 2.420860312537547 0.8309398917168433
H -5.998100941414051 1.331616368501285 1.1019092245658046
H -3.4394007738991466 -2.560982972290915 -0.36309001189141704
H -1.4447037341228504 -2.0728764143634293 -1.8890435668161483
H -1.1466841299510702 0.2668846347466191 0.04322404205210058
H 0.40819347511762477 0.7931926853340815 -2.028718868508163
H 0.5005291074649805 -0.9628054146983667 -2.246889645109937
H 2.4861374862885928 -0.07153969267307318 -1.2162257392459481
H 1.6765241568901101 -1.2576680478450644 -0.13883629314796442
H 0.6506798222989634 0.6572055197645102 1.1187601104723779
H 2.904140867359223 0.4768083231996266 2.3694179260824644
H 5.305803166598989 -0.3930031120755759 -0.4264900543682934
H 5.445825566536404 1.5198483283689856 -0.23705085458749015
