31

C 3.9414137818366597 2.00558569521368 0.8393469368960352
C 3.626734350083663 2.2544055097395317 -0.39791351858906143
C 2.946283093401742 2.5459617831297128 -1.4940801208722407
C 1.5163626591084705 2.8192775326337616 -1.4452070105594577
C 0.6201447015789094 1.9235318446823169 -1.088685954452941
C 1.0549322350709287 0.5818375260265806 -0.7191483254710562
C 0.22199403751150082 -0.37332726641194536 -0.3491804675087368
C 0.6982124284680593 -1.6965587878545352 0.010080972564343519
C -0.09466383119749003 -2.687133276523035 0.3546971823785619
C 0.43368456583922743 -4.027048717402873 0.7139143271684576
C -1.5278702339822114 -2.4521383739956755 0.3953237047241935
C -2.0130702791122475 -1.2865677685314993 0.0989107772009899
C -1.2249734336056999 -0.08272642075454266 -0.30274582553488294
C -1.516528069819536 0.9422139841995728 0.723253361222587
C -2.7301535597536253 1.4170546602657172 0.727291508461675
C -3.9780920248646994 1.8441290569918805 0.6629545657571274
H 3.9346465836936337 0.9870003989460108 1.1673520172188283
H 4.199988162105874 2.7824718869332963 1.5278606242586008
H 1.191053996058359 3.8116103873319624 -1.718145874778829
H -0.42387111528360166 2.1865597277160305 -1.0745388609855235
H 2.1185276244852007 0.3355994745140787 -0.74336914289473
H 1.7673310677425984 -1.8952027699202063 -0.0016514389424577003
H -0.3636356501991548 -4.683432474531054 1.0571492222578498
H 1.2678042417448543 -3.946972036640554 1.461504439455521
H 0.9239359314218785 -4.444155334679196 -0.21249036975333715
H -2.2329009634544565 -3.2526121459942763 0.6769554556930516
H -3.094875519887941 -1.1398975555119812 0.13723801836751157
H -1.6101273065570545 0.21767588325885948 -1.2988512501963831
H -0.8723833276722076 1.3426962384727519 1.455411290139618
H -4.658589352676354 1.2932807747091861 1.2555423336655458
H -4.121314792082022 2.676880563988724 0.02690497826507758
