17

C 2.4055506974955763 -1.1845439363786685 0.43738066785355967
C 1.5518404057002726 -0.20399533545278353 0.17466560963286953
C 0.6744071862877593 0.7324337937202374 -0.01781682636038594
C 1.2542600344362802 2.0333833335402147 -0.36174811008537466
C -0.7026512952997466 0.38159869625726756 0.126859244409626
C -1.203774486653347 -0.8017354411326398 -0.16217920456747204
C -2.6238493510449685 -1.149991384641075 -0.008606750477268672
H 2.7034850661066963 -1.2544910618072955 1.4446622749968316
H 2.6498096912352485 -1.7418274460866856 -0.4186980104608291
H 1.6177110802218753 2.5652841689714614 0.5664180845794774
H 0.454072470061621 2.721861047427777 -0.7599342387776847
H 2.0833237792651396 1.9118181744516058 -1.0922255597147261
H -1.3923396720126506 1.1289211961821175 0.4980766667168666
H -0.5099448078724373 -1.556025053672042 -0.536405647671263
H -2.7562279225122954 -1.6714749905812418 0.9366859331861549
H -3.193673685634914 -0.1903053303296914 0.05801105097677819
H -3.0119991897802105 -1.7209104304684841 -0.8851451842371171
