29

C 4.204291316145328 0.8200564452117121 2.6417606142788155
C 4.168481591099334 0.244984111459633 1.456511350117765
C 4.037633558315433 -0.3390170517315079 0.29202580224781294
C 2.6950067011497025 -0.7863775898324817 -0.06757891087574254
C 1.6180707161546577 0.030629659155622328 0.6273701884437547
C 0.2940356323077866 -0.4881404073901865 0.20787646007406255
C -0.5677201460294995 -0.9721112698651749 1.0938946498539146
C -1.8884090808296856 -1.4829622082049334 0.6231448423117915
C -2.40503178307825 -0.64818479410394 -0.5054807603942811
C -2.382523101845562 -1.158242311721564 -1.8798087908063827
C -2.8740087290092577 0.550564817858446 -0.20503548564653037
C -3.381487439494597 1.3790909766184456 -1.2880153948371567
C -3.846954239726329 2.571242317330059 -0.9829382358287735
H 4.390236519628715 0.15770892157682942 3.441304165095472
H 4.041379087011009 1.8615059508849485 2.625796463165045
H 4.9368074896158705 -0.4178642501027596 -0.2581051601744928
H 2.548215732292522 -1.8411324672707594 0.3007008469405374
H 2.498041952233423 -0.7851142569920537 -1.1586425362804076
H 1.708676364976797 -0.0752517743186019 1.7212627256634425
H 1.7073927613061206 1.114969362841522 0.3547839722980619
H 0.05706248941722052 -0.45696011207360676 -0.8496002407894191
H -0.3031121676134986 -0.9894562976638496 2.136317857582194
H -2.6267440923084426 -1.5755291665645434 1.4249785153157268
H -2.0654033478263303 -2.2068319653464004 -1.8905047017399244
H -1.6791592601218446 -0.5874970354777609 -2.5195856529935847
H -3.4050063502869037 -1.1197855353633768 -2.340857428391143
H -3.3841058748792023 1.0434748759636427 -2.3147646992431112
H -3.863124503555693 2.9441510976684873 0.023442655997280133
H -4.232541795047792 3.2120799574511114 -1.771725163218667
