45

C -5.447976721651921 4.8608070593645785 0.7157180714530578
C -5.303554703852179 3.5514443931843593 0.6695603048658856
C -5.055258537156596 2.258866751742904 0.6027687567337852
C -3.6778531173545983 1.8731965981765293 0.335368448200536
C -3.2799441631858617 0.5797086724067233 0.8440283151475947
C -3.831688034630338 -0.5394868797353991 0.4820264876358879
C -4.684982967424899 -1.485535234995704 0.23122969044583844
C -5.885164082977934 -1.8880536965530939 0.8854744591347221
C -6.369231800265148 -2.913962859968067 0.2129501290072167
C -5.4865303153488565 -3.20784557146692 -0.9080095265338175
C -4.472457355391075 -2.323218791518409 -0.8705678525091356
C -2.26070299651466 0.4463247133767548 1.7771003586270886
C -1.023351707948133 0.4835915231646852 1.3499292511681875
C 0.17055408948144068 0.45558502401047074 0.797055104150824
C 0.6366524275301209 -0.8579976112304804 0.3741265930978918
C 2.179487925702932 -0.7922991303777602 0.2581024303209586
C 2.7231940687698315 -2.0720663072069154 -0.16176958608890252
C 3.8451686635825553 -2.302674812906999 -0.770599753331878
C 4.8551952047682905 -1.3551560580279187 -1.1928619832438243
C 5.967973211328437 -1.7361700759081364 -1.8433428616199108
C 6.76990222602047 -0.5644623469150539 -2.125842891445574
C 6.178972480649401 0.5091268352478346 -1.6627313270948167
C 4.9144439598425045 0.11233772931464213 -1.018910178734163
C 5.075276218924223 0.471985038973312 0.4355645939564491
C 5.067268344537894 1.745292917483803 0.787978597441912
H -5.317979345984327 5.27831654477899 1.6777722859231887
H -5.6723590681442975 5.306838616426648 -0.21570141177557076
H -5.908124699386246 1.6561666263576098 0.7555376930656501
H -2.95907675534106 2.6399744775373457 0.6034943723127424
H -6.316022990918015 -1.4421464942552948 1.760471693128776
H -5.6349002331971745 -3.9921319518882927 -1.621505585927423
H -3.692813794640916 -2.382703357919034 -1.6441164354455216
H -2.306553362997827 0.3089340260511673 2.846239199098356
H 0.6325802318922729 1.4025994738239675 0.7339628040287681
H 0.21956471655775892 -1.1975753306898775 -0.5922243039368625
H 0.45145083472985087 -1.5867372767204924 1.1890537536908683
H 2.4232922446308014 0.014229669639579865 -0.47904420005417836
H 2.521966653917285 -0.4585428725486492 1.265935430609611
H 4.038723539034843 -3.3784270004813055 -0.9879435016737043
H 6.271997461807875 -2.7284775126531158 -2.135505916903108
H 7.729746275922805 -0.5296918596936042 -2.6439741915524366
H 6.589765337413811 1.53198780200022 -1.7567086097225937
H 5.196274064471664 -0.2862211206708049 1.1911879287444143
H 5.180038566605579 2.039745739119124 1.8217330124023783
H 4.947038006188557 2.4945239221517506 0.036045479667524166
