21

C -4.671867295272076 0.668657790606885 -0.26739201125303874
C -3.8303893408904446 -0.17489686361938653 0.3019364223763019
C -2.9312800253961253 -0.9434144534071877 0.8486917624539956
C -1.552161390169652 -0.41103145952787523 0.8786480795794431
C -0.9309772643082496 -0.6493961149050218 -0.4198487505227398
C 0.18417566457270004 0.007947964865782257 -0.6548234881880513
C 1.3347653248518114 0.6431835273994994 -0.755614929918266
C 2.4925512390575606 -0.07936862677541058 -0.2563090508559027
C 3.758220932997863 0.6330558508091653 -0.5952573657519502
C 4.899090380257617 0.030973572157971415 -0.37179456063414934
H -5.125374868663252 1.3526641357301254 0.39871890617625394
H -4.775356991287068 0.5434589644863781 -1.3139980539383553
H -3.293047553645501 -1.8641114328994721 1.2099466784888013
H -0.9644707686871082 -0.927898163179702 1.6790102294916744
H -1.6171472595527163 0.6933208457664193 1.1032460040600938
H -1.2258629860121413 -1.27097017205564 -1.2188177019357629
H 1.2438105706085318 1.600006188466363 -1.1905187822684538
H 2.539397735339672 -1.0664709184665242 -0.7745818754395065
H 3.706268543843809 1.6430495121734865 -1.023172519955239
H 5.8267119371819955 0.5292265795297123 -0.6100598368773726
H 4.932943415172245 -0.9579867271557395 0.047696969642355036
