25

C 5.43846111575896 0.8189033476721125 -0.11057159526670474
C 4.243879387295052 0.8531331213591637 -0.6210205620547864
C 2.985143381022463 0.6069523304496302 -0.955228981862051
C 2.291712831454207 -0.5042621603923321 -0.4214675630586532
C 1.064609215173092 -0.2591932210013202 0.021130603492158468
C -0.10320434092010161 0.11372281208669632 0.4441932543063405
C -0.18816034294507444 0.5586511554376634 1.8126503810661425
C -1.1487133376021545 0.03204538356698261 -0.5174996085561022
C -2.070129681929342 0.9781654837515127 -0.599171431600387
C -3.0503429324470708 1.7971251290341537 -0.5111145471088226
C -4.154921781738361 2.4677887163907446 -0.34063543771624605
C -1.242373979402953 -1.07080649490262 -1.427793520759019
C -1.5753457564375923 -2.2248855892346264 -0.9066018628048188
C -1.9145683976090917 -3.3493819311313384 -0.30525251947349885
H 5.633942461701508 1.3212744950202888 0.8115123324100645
H 6.210931197587297 0.2850414249511857 -0.6197347085197086
H 2.5465571645667673 -1.5153335550840528 -0.2953557580634089
H 0.5006754976086462 0.06147097488140954 2.5193120466621686
H 0.08650606325421897 1.6539316004664562 1.8519649867590415
H -1.2140354777000275 0.40996826887647897 2.232011527850138
H -5.119814953769166 2.030621525113993 -0.6042155106806556
H -4.087192108038074 3.4667689302692595 0.06830207018144377
H -1.0807925258521576 -1.0922556500711598 -2.4704592046777814
H -2.9560872324752916 -3.518471183217453 -0.2550108820701779
H -1.0967354665564437 -3.9209749142927457 0.04141764713076759
