12

C 2.7170675792189267 -0.19070198378327682 -0.34709439462960234
C 1.4674707564632719 -0.502329332436192 -0.5420593600589904
C 0.16827984566441806 -0.7112563305698663 -0.5112730186427729
C -0.6271016053081178 0.3518586436641754 0.19904639225439857
C -2.0695596568590946 -0.06927778639398252 0.26098208780548615
H 3.2314388317961957 0.547672989187828 -0.928516999906789
H 3.248344863023784 -0.6976950691766092 0.43438726284297263
H -0.5798992169434367 1.240337820302951 -0.4962682020171282
H -0.19531167598128554 0.6167806230485224 1.1657519404093184
H -2.1957523779499954 -1.072205750407194 -0.2365893799842972
H -2.4215604513969207 -0.18289780540958164 1.3175934026136502
H -2.74341689172783 0.6697139819732076 -0.21923504158933824
