20

C 5.741201566326979 0.4965914438951919 0.2744688379466903
C 4.759702975457448 -0.2954962608050193 -0.10310663824528567
C 3.6488098335160877 -0.9652947737550867 -0.1619855452079708
C 2.423705288622495 -1.3819232248332836 -0.2634404940466522
C 1.1594521784494916 -1.6979957584138639 -0.31109476204066694
C 0.14006149768363285 -0.9436927769033029 0.40662797626737873
C -1.1139852338391916 -0.9195420442484057 -0.008874931747542726
C -2.130181986255777 -0.1400205860899632 0.7462101754069804
C -3.349112285796509 -0.04588768554659785 -0.06753592540069431
C -3.9894298614949038 1.0883704779888275 -0.02761961855043025
C -4.569300230908498 2.2594901073072444 0.07187818175973155
H 5.718650636299832 1.5634926475419078 0.15282292545341306
H 6.618864019797496 0.05964782782043202 0.7313175269190253
H 0.9047850449106077 -2.5721829563820164 -0.9280358903133202
H 0.42598954956758334 -0.39742548755965457 1.2940657451073942
H -1.3774045801375763 -1.479439677609005 -0.9078024593349457
H -1.6993412173893767 0.8357671117232099 0.9644199013940913
H -3.7833611457273597 -0.7788615591918717 -0.68772984643945
H -4.244795017245737 2.9765486963304113 -0.6372451686401863
H -5.2843110318373965 2.337854478730673 0.8462474542707322
