25

C 4.611338863036325 0.21456143339965505 0.9516921211870911
C 3.4853209996993644 -0.43933719721833786 1.0147666775983846
C 2.3284190711838195 -1.047566503957485 1.0051517266534586
C 1.7966412880977525 -1.3688630843653575 -0.299043722855551
C 0.9001902707164361 -0.556940402928783 -0.8324465408584849
C 0.4414515892006707 0.6614312887696517 -0.11768717538675172
C -1.0262952857063612 0.6423729600945955 0.13715437011028686
C -1.5919390208166202 -0.4570278282160099 0.9527397229671621
C -2.269170904666406 -1.5151639347746784 0.1175158798176608
C -1.8102968519602016 1.5936954856507788 -0.3583484711367572
C -3.2680771682820886 1.5584372089249543 -0.09450844722731641
H 5.475819046848493 -0.40832650147278005 0.9546967634769565
H 4.549729535927882 1.2766193070509828 0.9037648746982617
H 1.9174040353417825 -1.2327166091009785 1.9626541932755375
H 2.1057356733792014 -2.2475781820753484 -0.8517373097553833
H 0.47901360921405073 -0.7535719915136281 -1.794217730780956
H 0.7213348423723297 1.5801449754885437 -0.699049653749203
H 0.9661791018108087 0.7761808199922615 0.865278207775886
H -1.7024809615479901 -2.450007288170283 0.04518620724463081
H -3.229319531574692 -1.7591143525309492 0.6405016564855133
H -2.5518067707743035 -1.1280175019812595 -0.887810765516781
H -1.4041025638457525 2.396825504411552 -0.952987386748495
H -3.538989938135033 0.6331439443994517 0.4708057460514782
H -3.791460835673481 1.5826846636121807 -1.0719671177594368
H -3.594638093846093 2.448133786511034 0.5071433248252135
