26

C -2.549433407681831 2.481670363417924 0.8236197507037852
C -1.9836777446512321 1.7205923803842331 -0.10198468001667471
C -1.445525130620053 0.9228713475319686 -0.966226592913047
C -1.4527960539081763 -0.49953838548174884 -0.6019636226276796
C -0.47798782298872644 -1.3492765646950224 -0.5204802935252915
C 1.001418730465641 -1.250026952665406 -0.7515002927525597
C 1.3481764046200264 -0.13564981427174522 -1.6479280819698185
C 2.1147565300899744 0.7233792690524936 -0.9618640992702941
C 2.3102116842069713 0.2282108663111385 0.4005140823386615
C 3.112362995639125 0.9346307865615916 1.4384229442913476
C 1.6666198264203935 -0.9193675450849869 0.5334328415380631
C -1.3210197144697087 -2.444450125886759 -0.12360846494379417
C -2.4369532210537876 -1.4980994976033735 -0.21010842665152368
H -1.8776462199922164 2.8354394048388145 1.5584927444874113
H -3.5867841178453443 2.6219933770145296 0.6912176383631006
H -1.057835553089293 1.3577457958819654 -1.837196503522789
H 1.0687487012247165 0.016675919605170782 -2.6718793995256918
H 2.5306065638996036 1.6416693572824248 -1.3416998832897582
H 4.1863577750233105 0.9248857056115214 1.1455170937552233
H 2.795909589232343 1.9910909878795506 1.540573039433495
H 2.9869328153720662 0.42987160338772046 2.423539230658294
H 1.6369523339937246 -1.5119344255906635 1.4368456592622616
H -1.3776947765030716 -3.29012967083136 -0.8806242122888305
H -1.0649198703381615 -2.8274599872972286 0.8980599684322876
H -2.970784426113774 -1.3071080595863565 0.7538107880129574
H -3.155995890932499 -1.7976861357663905 -1.0269812279791157
