31

C 5.5539932299123755 -0.6384419961362464 -0.22939910119637216
C 5.071826590035058 0.36048921382050525 0.47416019134570697
C 4.521510843712189 1.3584800555115137 1.1173741621640167
C 3.29359790082657 1.9032304525588746 0.5407845899845933
C 2.106737611279095 1.4980198819201167 1.3259328944415911
C 0.9990043865261776 1.189439687039463 0.6846976386973885
C 0.004325338650805073 0.8353962672583531 -0.043185959165918684
C -1.0020702579004015 0.3823352204482119 -0.7744885453187821
C -0.6863108463571915 -0.4660597196410312 -1.9111546515489009
C -0.3354967635357144 -1.7078768986094082 -1.6275195967868614
C -0.25281138559210886 -3.0085289161769357 -1.4227256078929595
C -1.499726576307519 -3.731754913898058 -1.2262052712241516
C -1.7241581773227104 -4.799357783229316 -1.9498069572724481
C -2.3421401952443186 0.7570585286632566 -0.399523725390939
C -2.585359417000369 1.5295783968957215 0.6402575554192343
C -3.921876036454447 1.9021848204232392 1.0126679769651838
C -4.2032840376933684 2.675823246228411 2.049937783340195
H 5.200051123538421 -1.5944452025778333 0.04924185596061182
H 6.240624286453767 -0.3493180545195224 -0.9918747719376492
H 5.0391443127171405 1.6530763824192367 1.9874445823528442
H 3.325248879846375 3.015961827448067 0.5468867575799765
H 2.067422136903988 1.4319630720525671 2.3906603675781732
H -0.7092657998140853 -0.19907773998430212 -2.9331214464888293
H -2.2110582342890877 -3.3674607572292388 -0.48511144318501925
H -1.0008693789977159 -5.125342285361429 -2.6673820786936298
H -2.632597967842858 -5.361905003429194 -1.8354777039365984
H -3.1784234320816136 0.400718212158251 -0.9795941544934946
H -1.7706036534120086 1.9168738901743354 1.2607560295909541
H -4.7600989962925615 1.536588149503931 0.4196500906486395
H -3.3916995858534453 3.0570704420094246 2.6617262057154805
H -5.215635898408164 2.9452815242570662 2.314392332748549
