27

C 3.704286709613029 -1.5832769145362744 -1.5331666935289276
C 3.2243286150328543 -1.095873670706504 -0.4145515229807573
C 2.72074446895607 -0.5515645658157455 0.6635108067629331
C 2.049795641217827 0.7081433032232666 0.47642401257204464
C 0.7485743073671083 0.8893000549120581 0.5640479123734875
C -0.005014190038363595 2.1836690362636895 0.3779134410587723
C -1.3545466487847473 1.6462340593184563 -0.0016973470658107489
C -2.2857946676867096 2.1380765772994677 -0.7940197166094943
C -3.547372841058522 1.404558098598496 -1.0054762877005545
C -3.466921541711502 -0.013402051066048214 -0.6521521688744256
C -2.5290550653204003 -0.5129251327119567 0.13653428369471066
C -1.5204731698045046 0.3765231660024051 0.6877220690810243
C -0.2002241239288762 -0.15704513499949296 0.8628345293098081
C 0.02802553442763155 -1.3794081315267888 1.2267515508679756
C 0.40067415851613897 -2.6216456102195806 1.3254546974413008
H 3.0355285905710483 -2.214669977751341 -2.067140182368497
H 4.69540981081376 -1.2855547800426317 -1.7624622569285666
H 2.8688597554309427 -1.1079410203413713 1.5502302876945704
H 2.660349980333246 1.565255141113592 0.2476897132627364
H -0.03957220800104361 2.7586273110736896 1.3024660158783785
H 0.4686177540316714 2.683477188785909 -0.46908356949890856
H -2.1320047524284003 3.112969898787028 -1.314046701180712
H -3.84862614794506 1.4903103169856087 -2.071506998741669
H -4.245731327387194 -0.6689982026174611 -1.0847289801633966
H -2.5290053252412608 -1.5589517569016742 0.3542878123252452
H 0.5240000372842927 -3.275642061197857 0.5116233321096734
H 0.5751466457404862 -2.9302451419303086 2.3038186101301235
