33

C -6.9104558166472705 1.5111330771120386 -0.5624172800551138
C -6.069596382690539 0.7792640066846217 0.13590254026457754
C -5.272595186466304 -0.022841933330001955 0.7888241347728177
C -5.429938848444459 -1.455809396247089 0.5273599452245055
C -4.816297725488397 -1.793293301533258 -0.7781190661196566
C -3.633095740931958 -1.3468043849550062 -1.079593143968748
C -2.3886528143658783 -0.9948129680082258 -1.2172452434114693
C -1.154616999339717 -0.5890987254690507 -1.3169956219283592
C -0.47128887606338166 0.09527665005387277 -0.17760465659381644
C 0.9420058177091242 -0.2866447019808144 -0.07487475867048764
C 1.9723186755275797 0.5817570321251359 -0.16237987876916926
C 3.1946951377972463 -0.16750042895450082 -0.014122047157703769
C 4.446198248021758 0.1655386088768481 -0.014255769856488265
C 5.580296701331714 0.7772313465025271 -0.183700894089647
C 6.155166878444485 1.2315788430976793 1.012726811491964
C 7.314621772142507 1.8812249886435768 1.0542007113961915
C 2.8484980106268467 -1.518548766508099 0.16528619589002916
C 1.495663360433947 -1.6200830285234447 0.13303180137392112
H -6.547834707190153 1.8145521222074972 -1.5084477127431315
H -7.835225043158197 1.6956738027713805 -0.0826737657820881
H -4.597686067725791 0.46146126347784566 1.4386534055264832
H -4.830505376969917 -2.0000217265239724 1.3109678092525447
H -5.381159949649213 -2.413148007206383 -1.455474464297925
H -0.5742087661415615 -0.7270970577538879 -2.2184312837613147
H -0.5911127921980642 1.1726597751167158 -0.2816002460249805
H -0.9934969432067554 -0.2047461669786349 0.7665128598363197
H 1.9375034971276899 1.652427601369974 -0.3152420579229957
H 6.0379405529959795 0.9281989432876323 -1.1246527642831399
H 5.678062851102423 1.0747091157284374 1.988193196711592
H 7.714564685063388 2.2072927846635673 1.975202910214598
H 7.81333738629688 2.052910858530164 0.11424602291977103
H 3.4337419154169497 -2.412168896623275 0.3120066971705203
H 0.9331525466404816 -2.5302713296538157 0.24239279318633397
