31

C 6.450300151465003 -0.25552281486149064 -0.9670146804005316
C 5.177158190703845 0.0003920668864205775 -0.7482502924021418
C 3.900250275996957 -0.2075152702581041 -0.6007429509358847
C 2.578836716094489 -0.1699472434919394 -0.703486636900224
C 1.804473461342219 0.7791629395017589 0.006608564338978402
C 0.5402472943630742 0.4888427949475202 0.2246320447288349
C -0.7019835464887123 0.04624888351097934 0.3314950506124046
C -1.5673945042054558 0.4569068211084366 -0.7515538491242916
C -1.2705013711616988 1.8659206468187846 -1.1003853536834511
C -2.1566511117687113 2.7785721221474233 -0.8065830873227907
C -3.38484197939957 2.474422596239295 -0.168809517495326
C -4.479921865053684 2.9175158708655498 -0.7274614977558634
C -5.541866352070513 3.3709913219397447 -1.363468243012021
C -0.9596984305288957 -0.7487534620682773 1.469930738858835
C -0.8720656488640264 -2.061519004754234 1.2897151619288092
C -0.6342803887721387 -3.328814875139765 1.0301483144209775
C 0.7496332422152225 -3.7706279203227067 1.115453282087512
H 7.158724196640738 -0.33321021390019595 -0.1617640577785822
H 6.803686849833914 -0.395578802698741 -1.9824870674342572
H 2.1086760498274666 -0.902568699242626 -1.3620913083660704
H 2.0512210715595414 1.727112518308953 0.4230570932320814
H -2.623262134397686 0.21383124603055664 -0.6887789180294249
H -0.36020204338268574 2.1689899555631404 -1.5838519792608932
H -3.556077248261231 1.9179190733015796 0.7295015824828832
H -5.861647795104318 4.318768079525041 -1.0302098845078531
H -5.923338188766385 2.7325427435521497 -2.109961765973354
H -1.2165008491899083 -0.5028732124039307 2.4595379274247566
H -1.5130752762892516 -3.8700144468850435 0.781370920333165
H 1.3586544292793663 -3.084135182235008 1.70472231973823
H 1.1558718008768072 -3.8053325355736236 0.06003915372250303
H 0.7855750039549961 -4.821725996330965 1.4783255966415159
