40

C 7.052119396440826 0.5800168233429223 0.4411615205545948
C 5.876576445357822 0.4814148107004249 -0.10630005670220104
C 4.650232040856819 0.34610667360103853 -0.5690136057594686
C 3.6629403589790166 -0.19516617725230093 0.34841988771050825
C 3.862776169199268 0.35789636101918304 1.7292420177646268
C 2.7272037086623513 0.8219874924058193 2.2105109635019184
C 1.6508212053746236 0.6628274890567137 1.2072867795415134
C 0.3576984348075011 0.9703672749737474 1.175033419095621
C -0.48224962259050785 0.6528165278112132 0.005489319343849535
C -1.7943974476073727 0.6430068980512925 -0.21834119273131525
C -2.7926043758274455 0.9977594386424872 0.7702830525151223
C -4.078296363590461 0.9541258822168519 0.4420803803477927
C -5.079429946151839 1.3130820784376929 1.4437078058327646
C -6.372636857142933 1.2914532042849698 1.1848088676303195
C -2.072562532747201 0.11635691900732253 -1.6143814142385622
C -0.7797923274848927 -0.7706827626496774 -1.7870029994346324
C -0.9356960716110677 -1.9462888859114895 -0.94524290158137
C -1.5860293944270902 -2.9588746054108284 -1.450709032063299
C -2.253984383233391 -3.9234612590512357 -2.0474270264500176
C 0.18659071477598085 0.22999283830378575 -1.2510413198452572
C 1.5725924966871527 -0.14161937630932306 -1.108480343033921
C 2.2682131345317242 0.08074177166942677 0.014873237503042197
H 7.253028712876454 1.5084173129640182 0.9337701565307656
H 7.679032303953528 -0.27791745205535534 0.3359528066967473
H 4.545090765868355 0.6579894663844169 -1.5738488383926124
H 4.810681171336251 0.35937340762300496 2.225376000620955
H 2.546747569227665 1.2638412654182312 3.1837638778174533
H -0.09901269701170426 1.4651971943189468 2.021148146625171
H -2.474667998102114 1.2900533599490778 1.7522442910911986
H -4.407943836682818 0.6623756496364188 -0.5396946605942639
H -4.7402767138669075 1.6076977295230168 2.436015056925006
H -6.737627027920995 1.0062711410972356 0.21883031888388085
H -7.063388485959761 1.5645438400996647 1.9572362454673773
H -2.935561329835462 -0.5721273307776858 -1.6075502414795404
H -0.6506135564862292 -1.0025609418906989 -2.857334290976753
H -0.5896499422303921 -2.109898087347265 0.048779173027899345
H -3.3017375795223356 -3.8884461644202957 -1.9011735920874955
H -1.6521001942502134 -4.602451901028178 -2.5931296078260706
H 0.09561873669999124 1.1211672925898815 -1.9875503048052747
H 2.0822953186562074 -0.6173851990221755 -1.9277918970130776
