19

C 3.916638168506149 0.033264437661078665 -1.146822406274197
C 2.7869433997098563 -0.5646629914478045 -0.8845032197428178
C 1.8026455222482822 -1.071458666330865 -0.18191672841120823
C 1.2083169696549587 -0.42895064662954063 0.9966614698067607
C 0.09386991010967759 0.4559416084012127 0.5619990578293103
C -1.0680846286567303 -0.10415551775763088 0.2337888338429329
C -2.2550089975705045 0.6415404791918651 -0.21255191893032796
C -3.5296118660252738 0.0014710213139394399 0.2804951898418358
H 3.798585817326198 0.8095214080584825 -1.8559412650235327
H 4.857860973998559 -0.19603007697197472 -0.7227965604844975
H 1.4809021386144863 -1.9898952119916953 -0.5485129978525081
H 1.9922307096837457 0.16506468708471855 1.5334028356162175
H 0.783850556574354 -1.2215783654422139 1.6428387946345029
H 0.17161677545557882 1.5207948552755928 0.4973702186572271
H -2.2858878991983693 0.7407661186547532 -1.3026358668593987
H -2.204492498990538 1.6721903374885563 0.22422489831549705
H -4.26570549837323 0.784358101389407 0.4595202403147175
H -3.3707948710107276 -0.6151106014757862 1.1945833069997882
H -3.9138746820561665 -0.633070976471901 -0.5641171479435122
