22

C 3.2044951889405 1.9888006015225514 -0.5865196166403925
C 2.4775228708000046 1.066224768810241 0.025103674387504053
C 1.7735985959339806 0.10477277751966778 0.5408324504764659
C 1.6157944883905644 -1.1138575334657228 -0.2607816602305468
C 0.10668300604960174 -1.3233964682078398 -0.4347215458218194
C -0.5620024724179012 -1.4803361718233428 0.8707295327814246
C -1.5066917599073881 -0.6448833032582129 1.2702166081610446
C -1.9202512588174057 0.4804909196618606 0.4098517231068565
C -3.0311234735154065 1.300372314203761 1.022070560160887
C -3.3187399638027943 0.554582433874964 -0.044545686030866005
H 2.64497067082851 2.6529581314867836 -1.1843260254428538
H 4.236567253877035 1.9224083743375044 -0.3855973904758155
H 1.3771766305551736 0.28738950209850234 1.493336850844805
H 1.9893860551879134 -1.9929885762973223 0.3261258136766106
H 2.0623084739276782 -1.0448115063518673 -1.248258297533987
H 0.010533517299329895 -2.309300571939259 -0.9670699674337625
H -0.35072114603760846 -0.5579063255412984 -1.0558658715223774
H -0.3023178349784844 -2.2956009814891223 1.5607394031426796
H -1.9659730436580352 -0.8168931792542071 2.252656303716232
H -1.177740426112543 1.034904174879654 -0.1972170930412896
H -3.3205826599313077 1.9844639666208272 1.7831750995698903
H -4.0428927126116045 0.20260665261188981 -0.7789859193272356
