40

C 4.825361575748328 1.704593268287955 0.6740081302931342
C 4.893137512914929 0.7041860995700009 -0.18600104493255942
C 4.887835723042418 -0.2601635110984042 -1.0754491793114587
C 3.7602266289305475 -0.2679544689868058 -2.0052676096730853
C 2.7257709134117114 -1.16907267209454 -1.5207533829601712
C 2.1396709531411053 -0.8244403750039219 -0.38621877037490226
C 1.563873446160445 -0.3428015349940844 0.6865494990501934
C 0.45400032892134057 0.5415160406729369 0.4568617808168448
C -0.7611965480717715 0.029433774983835367 0.4532374613875332
C -1.0365401749613605 -1.3700386244510228 0.6673067636170588
C -2.430817512921293 -1.8578812071516022 0.6465454289745718
C -0.05583309734818487 -2.2144280816208366 0.8807517747094223
C -0.23660908742806122 -3.659507463979559 1.1094003482024555
C -1.880014571900763 0.9475953982142006 0.2172405981973242
C -2.0617168451305323 1.274255515235784 -1.0064760633113936
C -2.0989133495941545 1.3496815479125934 -2.3409923469166207
C -2.734951993934552 1.446625423586027 1.2427620307158262
C -3.7811000577110963 2.3881473992029862 1.031874155124733
C -4.17142777510452 3.0277189337780306 -0.027888911429368706
H 4.30457327477123 1.4757979407240032 1.5656796976301877
H 5.299558553891668 2.5908427716235214 0.3497321269355646
H 5.711612817197925 -0.9189940170300004 -1.0061099748250502
H 4.062304832982788 -0.6275538990557478 -3.0335045053674863
H 3.3882948539140165 0.7776037702737258 -2.191207203444599
H 2.3476900045665254 -2.0680410069073325 -1.918757852794445
H 1.997113412035601 -0.670454915540116 1.5904585332739523
H 0.6025976372132279 1.6074295331474817 0.2893167068492166
H -3.1128911671507438 -1.167906075325505 0.11431999615967343
H -2.4724707410114766 -2.82380110618863 0.06998287830582446
H -2.829497300746157 -2.0913159595868205 1.6436445801002693
H 0.32108646312470773 -3.9106773800809225 2.057946861940334
H -1.2784104310804993 -3.961658548935425 1.2730629349706066
H 0.25873957729835306 -4.202604491498917 0.28445284168571483
H -2.652889881407944 0.5876633743776157 -2.793078282426679
H -1.5578805883779618 2.1803985568366886 -2.6847398142453103
H -2.0423917740790105 1.8890321276488324 2.055638858684184
H -3.128818426408728 0.5314827154867088 1.810219907299079
H -4.388109088729481 2.626703400612543 1.956057342933196
H -3.79319909311051 3.0037627405330736 -1.025980552710891
H -5.037769003058111 3.724825006821781 0.07537425686706187
