22

C 5.152908596282288 -0.6408761814438014 0.4568965168650204
C 3.9410348994589035 -0.14465463530537212 0.5755557046736566
C 2.691890612215727 0.27674342681458 0.6350024711008402
C 1.7103536666372425 -0.49999008468749834 -0.1019593043400845
C 0.9239652828512923 0.23021265087092038 -1.0850927941118695
C 0.09485379567831902 1.124506958365129 -0.60936538069462
C -0.7880606386587022 1.9230740081149647 -0.03349167561299014
C -2.049462427717585 1.343056430883088 0.2939799978836878
C -2.3748600001815636 0.09063273962808495 0.09615482119127634
C -3.658240017174258 -0.46295888652872275 0.4386833464252388
C -3.963177275342194 -1.7199102834659148 0.2319658700712442
H 5.408587474722004 -1.3558262984285336 1.1931270917777888
H 5.705394075929867 -0.25590183694728175 -0.3611817459884055
H 2.5681414081252543 1.1439766772374274 1.224835500270604
H 1.1027653775986637 -1.1648929769353813 0.541696030880307
H 0.9081401404568789 0.15686685147931953 -2.1440404311613865
H -0.42660498589383344 2.899345136396074 0.10724426957494439
H -2.8172701735256127 1.9851437014885638 0.7480528408378486
H -1.6279885034258206 -0.5732627550926376 -0.3556032959768725
H -4.3981969570592385 0.18475224808784413 0.883715272928383
H -3.2077860042246185 -2.3654873941226757 -0.21832382728285923
H -4.896388346753191 -2.1745494964084027 0.4676946399518835
