33

C -2.23355634736394 -2.1759998878649855 3.032515843655082
C -2.5026064777676233 -1.2932219461702497 2.092960606554569
C -2.7497468080966816 -0.4761300494338217 1.0921654550245923
C -2.571553852917152 -1.02701758009524 -0.24694051687926613
C -3.685626703520252 -0.7750792739699537 -1.1444012032180593
C -4.173742632044696 0.44150186892818893 -1.1563263441637956
C -4.595059254382564 1.6792399001757232 -1.0953155763591842
C -1.2974482991725904 -0.5984051051037861 -0.8311527231073644
C -1.3202855943930778 0.6552717435425685 -1.2109898781308193
C -1.2396844469277484 1.8995638612137016 -1.62425345774462
C -0.1088732159906401 -1.3404810817238184 -1.0227879001303721
C 1.0011608301155412 -0.8745428359307917 -0.47646419235444964
C 2.0362231902910817 -0.23499937521459605 0.03186483487350238
C 2.6767773522354696 0.7048222950047875 -0.8331912564493229
C 3.998909478035434 0.7465041875182924 -0.8698192151787804
C 4.868348211805697 -0.1262045148493117 -0.06458201539796131
C 5.058892188151827 0.5140814327096798 1.3085843425472212
H -3.0665521116909575 -2.7552567187255934 3.338954562915602
H -1.2250865629395893 -2.1851924267067746 3.3499263855515844
H -3.050769844603052 0.49091942206965966 1.3928460810000725
H -4.180881687863798 -1.4370062069140301 -1.8101166680083878
H -4.116261784547195 2.347201121721037 -1.7795631365685975
H -5.351864059566148 1.8665764437408676 -0.38064221443814916
H -1.522091931354103 2.0355354236188403 -2.6291663896927546
H -0.9045678965685205 2.5738237651284495 -0.8870273563255532
H 0.07108780341246394 -2.247752033969391 -1.550743143839885
H 2.245357702049168 -0.5151344806462395 1.0257455309191834
H 2.159498893166703 1.4044039732106854 -1.4784157745479547
H 5.879112733664991 -0.1888045936421062 -0.5279055671867252
H 4.449000487346293 -1.129376394116527 0.09206083501625892
H 4.098630620758548 0.8370841710267322 1.7300331595198453
H 5.749983344067659 1.3789247601912749 1.1639578017479526
H 5.603276676611264 -0.19484986472354032 1.9681890903969668
