27

C -5.858506857681927 2.034497515646734 -0.8091341793341591
C -5.11784166799415 0.949618675668957 -0.8109124423016841
C -4.326151377900486 -0.08681922452971891 -0.7500288444215844
C -3.1835882731971004 0.015105315352069099 0.1611728247106161
C -2.6879978402263918 -1.3889750840490116 0.4641262507772339
C -1.5264928274814806 -1.3108197321585813 1.3888660446647851
C -0.31329079393028314 -1.1433934830463501 0.900506090405638
C 0.9193043729965984 -1.3783600359959431 0.5620937777302616
C 2.1943112599095476 -1.5237038197020796 0.36369406315333
C 3.060714646888353 -0.34257981314651276 0.25495596690978667
C 4.048175830894528 -0.4539157467297898 -0.8416358179252366
C 5.115279886685112 0.3133655601292739 -0.8378435366416529
C 5.312226274713983 1.2823209380298963 0.2709840776901728
H -5.573095498169323 2.7647908391298572 -1.518674083486265
H -6.641504772102969 2.0319637764883662 -0.09642332513023778
H -4.605335366580365 -0.8904412774795979 -1.3739849895717215
H -2.3625132610111903 0.5944142772979231 -0.29383623547848714
H -3.4667780150767924 0.46987346070604236 1.1348328673389432
H -3.5115191346987826 -2.001580321081106 0.8879465017283034
H -2.3471274489318708 -1.8133823135607812 -0.5034604368456425
H 2.6215114015855425 -2.5084367672185226 0.27814784089497097
H 2.472868703591213 0.5953483664984665 0.21553867789026548
H 3.896756450332302 -1.1620905886157433 -1.6448634701322826
H 5.880947191717737 0.28754036962798823 -1.6070897268004096
H 5.286929837134008 0.7568852296245708 1.2654148868952617
H 6.238052245775967 1.8739018793573088 0.16093880107074476
H 4.474665032758171 2.0348720037562416 0.3051623050477799
