35

C -1.1468751388156535 -4.453333881437388 -3.0654809822838094
C -0.960667378106917 -3.1805303500887705 -2.8888408311831357
C -0.7478246518439182 -1.9614187606873292 -2.4038733090907276
C -1.7071341437762795 -1.4099108641813574 -1.452164590829135
C -1.103576100493673 -1.076769587237105 -0.09117485008320397
C -2.2170875284778866 -0.48322162483163195 0.7504672909338137
C -2.074179546092656 0.8427030732357601 0.7816442663325265
C -2.9842731395977227 1.7245439859335272 1.4912835054270843
C -3.0317507746871843 1.5174886792540212 2.80201320351281
C -2.8424205474534867 1.4529736553265913 4.115310342898728
C -0.835158771571185 1.2715321315256718 0.1800514168421169
C -0.35359363237809904 2.486473094129197 -0.0038399009669050216
C 0.8991207692554783 2.8910229035149033 -0.6186275937188677
C 1.801612053434834 2.172885087215966 -1.2554819002530637
C 2.099639389177063 0.9753251064431367 -0.7854618590098053
C 3.426897392804617 0.691500348767158 -0.3579123775796912
C 4.573499465736295 0.4332319075279837 0.009405463372959132
C 5.908629730152385 0.1260550368417171 0.4620313955654014
C 1.112565999345613 -0.1041912185185825 -0.6263238950344502
C -0.15823038674215972 0.009873704361728894 -0.23949606860849104
H -2.021595320960822 -4.766611088962535 -3.58746405986225
H -0.4308522806723419 -5.137069976332443 -2.692695024657984
H -2.1752849170416244 -0.4934597507228339 -1.8547776502802422
H -2.5765522319277214 -2.1114484973575984 -1.267095284725079
H -0.7666493890391141 -1.977400500774731 0.4394280925668693
H -2.991327227164306 -1.0917611547397583 1.2352065211323655
H -3.5973146060732955 2.4833518951273583 1.129303001764699
H -2.0994554150830873 2.0776720149974572 4.497638639856469
H -3.503782459448577 0.765115376961041 4.558799659470092
H -1.0240737220129814 3.262992552906274 0.3760824609798053
H 1.1467034352439673 3.928207008810424 -0.5556112020685232
H 6.664110889883128 0.8817619193004779 0.08399522657046754
H 5.950578235115112 0.20251252267802847 1.5707257672269583
H 6.291166701492862 -0.8670409220861214 0.0985353077948348
H 1.4751352477890685 -1.0830538268660446 -0.8356001819968605
