20

C -4.55169189362577 0.011845989774890464 0.11003629311697503
C -3.370069795997585 0.15801508074701545 -0.4485307770066527
C -2.113120480627428 0.2181091915164461 -0.8021832058055963
C -1.1019984400653726 0.09498039021308902 0.3043584265314672
C 0.27574799176150055 0.08793596181325557 -0.25746446913930165
C 1.1457908273406068 0.9992426170083543 0.07659529309830901
C 1.9329728286177166 1.995600298338367 0.3414447692857644
C 2.950677743348265 2.6578105424578973 0.8257677190958482
C 0.6468026854858164 -0.9436111911502076 -1.1833223282266156
C 1.56775746364629 -1.7787370373157911 -0.7743057976708853
C 2.499772615258033 -2.5790934014466207 -0.2955308958952712
H -5.0336700115183515 0.8723812132450178 0.5382632173129739
H -4.963525847820283 -0.9818121048792982 0.10203569133660781
H -1.3145277793642085 -0.8262091453974482 0.891597218747721
H -1.2397326738663812 0.9545656932750146 0.9938378626026045
H 3.156076660323652 2.7118846877129212 1.8887153650681983
H 3.6136649110396664 3.1735427078924565 0.11813578133767282
H 0.28316249231782764 -1.1330770297751387 -2.1595819171732265
H 2.1252756362343943 -3.4205402915791865 0.23063953317603791
H 3.4906350675114517 -2.272834172451038 -0.5005077797926112
