16

C 3.5426030446568886 0.5112690838923741 -1.3341680912864653
C 2.7489886685222036 -0.4985702339410288 -1.0642659434706832
C 1.8958944387768963 -1.452343786258507 -0.7488118027915198
C 0.7019362331260163 -1.0377439102747787 -0.0795881354759999
C -0.1879928685541793 -0.19809177417023632 -0.5853412163905785
C -1.369829632968448 0.183043181060434 0.13248397392301786
C -2.3754936059755236 0.4929468844541418 0.7223110387008606
C -3.5929273555646786 0.8924882286577596 1.431401866202071
H 4.246476163581306 0.737504789510517 -0.5726890689495623
H 3.3727779561251467 0.9643123430825479 -2.2748158712349076
H 2.2118366146121295 -2.4188057878772904 -1.0374123095559953
H 0.5015292124244541 -1.4313342150938857 0.9098173646453348
H 0.0009160670271801262 0.20050586737553133 -1.5698831322653988
H -3.872263424842794 0.15821624094672515 2.2285806912948427
H -4.432035530624207 1.0565703928832866 0.7192788659820859
H -3.3924159802949605 1.8400326957630022 1.930130156308469
