17

C 2.5347471358794293 0.955074293075725 0.6663046593764891
C 1.7626931621030504 -0.09516293356223479 0.7276766961890132
C 0.9553523613052641 -1.1276675167524444 0.6909199995374763
C 0.024883491427744316 -1.2001129619796789 -0.4309410416906385
C -0.9166450711302616 -0.050483959343081274 -0.48663428163744193
C -0.9246186666552502 0.7294055782811384 -1.5419702876275008
C -1.860446761085973 0.24867758604373055 0.6262599067148057
H 3.453595567532285 0.8144306589411532 0.13189997002983306
H 2.157231930824929 1.8154819788775942 1.1508357623946572
H 1.084841929313007 -1.8018431555161625 1.5080024465232247
H -0.5659473741366706 -2.155849616528489 -0.2730437087767049
H 0.5190680902739043 -1.273338298031972 -1.4200790258106946
H -1.6025095901008615 1.5613733008692863 -1.5878623271801395
H -0.2599270557469905 0.5507936561906418 -2.3697356567772685
H -2.8558648860057634 -0.17404358981556373 0.35024087833869166
H -2.0012140232458218 1.349183722253017 0.6574744691081872
H -1.5052402405854366 -0.14591874310750086 1.600651541251006
