15

C 3.634311172769755 -0.07939178538960473 0.11081300338330774
C 2.5263504620659085 -0.7359343261463763 -0.03689479244827623
C 1.302306721554259 -1.2329371326744087 -0.13807544793211948
C 0.20365130779715587 -0.2977378519147028 0.2958018907603961
C -1.1277481812401409 -0.7421428512038137 -0.2721062577215677
C -2.1597080527194183 0.21016671086726602 0.18692609438994956
C -3.0457882165033916 0.6752798173783453 -0.6544621675239044
H 4.017716805560171 0.477239576059882 -0.7130303308924488
H 4.149331574695212 -0.09588074521447378 1.043098997311697
H 0.439397886714294 0.7524456363816696 0.024653609351454164
H 0.16526456618403995 -0.35449653141437104 1.4014998131717893
H -1.091851996995792 -0.8343254852152275 -1.3626105704284337
H -2.1881623990109045 0.5266414385838745 1.2167535241186693
H -3.7945981176040573 1.3616560109559035 -0.337628369869421
H -3.0304735332674237 0.36941751894602354 -1.6835213145376187
