18

C 1.4699089667045173 2.288892024038014 1.691928996904527
C 1.4524249420619388 1.5174920088748396 0.6407009833597486
C 1.5793284711792737 0.42316067728813833 -0.08615772876064279
C 1.2304675265843534 -0.8920656096033778 0.34596943980427053
C 0.08960994543877498 -1.4691702171353398 0.1270248464484547
C -1.0261867083308545 -0.9146699206954474 -0.5774428027002093
C -2.1350447277120055 -1.6647719012966926 -0.7072167607538289
C -1.073284827612261 0.4129690365634239 -1.1779501078417205
H 2.306548992867072 2.4203727914659328 2.3364325465597444
H 0.5657923513212643 2.7780768711163706 1.8519829593460633
H 1.9922799882787217 0.6427858136546876 -1.0236926655453416
H 1.9812105663190447 -1.46640732195544 0.9082043970385912
H -0.005432476941983224 -2.5153259401123567 0.546156638060429
H -2.132427209419589 -2.637582750077013 -0.2797335476191847
H -3.0154309304363305 -1.3099832817013053 -1.2268075646337342
H -1.1406872922830997 1.2513759526935826 -0.4301743358099503
H -1.9641516662051273 0.5305168463279452 -1.8632868062603685
H -0.17492591181371425 0.6043349205560617 -1.7915150792344101
