10

C 2.3273933457527147 -0.11067492834760287 0.09340164760462165
C 1.016491160769228 -0.21478107933479312 0.011933254585660158
C -0.2560236573532348 -0.026639136526071073 -0.16425858224216952
C -1.4346175013557056 0.6678364319840574 -0.8278547814596555
C -1.5975413397784854 -0.4020368561712525 0.20276579316101534
H 2.8125524610079706 0.5401610649406009 0.7608435557613322
H 2.870150330196141 -0.7378527951228031 -0.5715794168686159
H -1.606396527703709 1.7300034038890058 -0.5254615614021776
H -2.0809842322497456 -1.3431603877120903 -0.17011470833207562
H -2.051024039285184 -0.10285571759904792 1.1903247991920483
