19

C 0.5707669605262653 2.391069078791413 1.5202559338098836
C 0.09532701904075801 1.410023482580806 0.7662598177843735
C -0.4221431468545017 0.42730130477556594 0.13648430762219987
C -1.8293267239078024 0.2683329215019492 -0.1759700594405375
C -1.919172197735784 -1.2682866789032217 -0.04377474521394707
C -0.5982499808533099 -1.746027150796556 -0.4777346815755377
C 0.273636820706617 -0.7144309241697958 -0.36030916223851
C 1.675117006747046 -0.844073800553187 -0.7054184622041572
C 2.562857892138919 0.11553829114538806 -0.6240108551040795
H 0.9058042718253478 3.1957093100334837 0.9295678853741018
H 0.5418262474607748 2.216825520195219 2.5565042610220927
H -2.043909484966347 0.472162727745584 -1.2462388296307503
H -2.531373123456454 0.7502061794696405 0.5171924372474769
H -2.733685890090969 -1.6065116475686938 -0.7118724588214042
H -2.1542043024327717 -1.5470524414367963 1.0034467128788562
H -0.3464706871650237 -2.7369650442200846 -0.8300446184925155
H 2.0779878914160226 -1.805270818855929 -1.0693518815359968
H 2.2603203538564203 1.0835813483294379 -0.2798144533189274
H 3.6148910737446824 -0.06213165806429413 -0.9051711481626163
