19

C -3.607745203521334 0.9623484625750747 -0.5162751378514007
C -2.746934905571846 0.06796902692212067 -0.10991544548767306
C -2.120294727892705 -0.8488882910955672 0.5696422956518442
C -1.403999072783803 -1.8807149806331216 0.9202535623418359
C 0.04341743611121554 -1.8205631553711705 1.153931689259372
C 0.9014462943266462 -2.0547108584549107 -0.0632209226575984
C 0.8553871405283392 -0.7025944742002767 0.6785263563479998
C 1.31802684946057 0.533872650640192 0.7103859014442615
C 2.2729106874587575 1.0624492060317048 -0.2457117042948998
C 2.7048575039189635 2.296745189301615 -0.1756472828496021
H -3.4635314196726728 2.0244112907916354 -0.3676134797147499
H -4.504956184674575 0.6501230840508144 -1.0225642618448998
H -1.8965622987806536 -2.8466394362748404 1.0499934009565335
H 0.45160489023095995 -2.036985782103771 -1.0733974381945568
H 1.8009612312679073 -2.662802446117137 0.12006350259569272
H 0.9583684054947117 1.1768661978240818 1.4957573789499066
H 2.623019610276798 0.40435812907618823 -1.0264358113158079
H 2.395146370495073 3.0059479265556104 0.5791724249691264
H 3.4188773933284624 2.6688082604807892 -0.90225855229969
