44

C 7.9712800385351805 -0.6608292274452994 -0.34814070935667796
C 6.996510525162877 -1.3979975375117282 0.15352995286964433
C 6.0258441090361625 -2.081376788106728 0.7120131246175181
C 5.540471229573395 -1.5820284383582346 1.9554120434154345
C 4.366857144659903 -0.971742825676191 1.9172902442201887
C 3.2444837766377015 -0.30441003631029845 1.753376881489638
C 3.3885532396861913 1.0826783990150766 1.4423850585270657
C 3.6865027244064015 1.4439935421177392 0.20612632285835397
C 3.873966908997427 0.4950100323149076 -0.849903422116479
C 2.8261484932397707 -0.23507365497716376 -1.1566275828569716
C 1.6919569526110358 -0.844094372589217 -1.462837003692235
C 0.8714543991188559 -0.18681057462927494 -2.4263365844908034
C -0.40134923405137685 0.12421382328989924 -2.08258726501962
C -0.844181544708499 -0.22650844842825155 -0.7722191759066289
C -1.9462111167992187 -0.07558722398545462 -0.16770191010451985
C -3.1914542136071167 0.5302595744855509 -0.6142971207086375
C -4.2714984621564 0.5964997708013364 0.19036752629639125
C -5.339380106147309 1.2377542376900355 -0.5086051302579612
C -6.576279771440498 1.490784318967129 -0.04661455923240475
C -6.919244249411713 1.0959169370293989 1.288980018844045
C -6.933166867835103 -0.18629236639003172 1.5333986954297532
C -6.924079187985482 -1.4922135800939875 1.6937798791474925
C -4.844044775118394 1.570854876383449 -1.8212335004494513
C -3.569260036415841 1.142583457306262 -1.862226566578889
H 7.643340785512635 0.11926934972018845 -0.9815943277414003
H 8.939143455294724 -0.955442511719603 -0.04430039950680697
H 5.720803976047552 -2.931720538933795 0.15892859501740694
H 5.9548235705653125 -1.6088360362526548 2.9242337710594666
H 2.3820988286460345 -0.8995820782074511 1.8759022842260331
H 3.2529704251160183 1.8197296699512977 2.2182688032890856
H 3.8031648194593246 2.507048783146857 -0.05987921505470008
H 4.724128521548718 0.27867121484402063 -1.4350537268811459
H 1.5578201053817473 -1.7474849705648123 -0.935778676947446
H 1.2021513080100816 0.07416394891217461 -3.402196752356181
H -0.9648166444969201 0.6167042490946748 -2.850845309263048
H -0.03668609676229646 -0.7475294420377687 -0.15009639693724347
H -1.9498778911975325 -0.48198422428937626 0.890247396514885
H -4.322140766690575 0.22760796830726474 1.1936747855133383
H -7.308752804660579 1.9815883379848855 -0.6583583604543958
H -7.166751654443876 1.7032769412896658 2.1186665476426736
H -7.849530705721201 -1.9659099068197312 1.498088411462238
H -5.991430052204753 -1.891200667995828 1.996137691984209
H -5.359794012122255 2.0652925235800126 -2.6385205453956857
H -2.9545451432714933 1.2707534950909458 -2.750939018594285
