24

C 5.342015334390162 0.4740000114768214 0.8608465395977043
C 4.782845390159452 0.382171433836553 -0.3200732691379483
C 4.172664370661103 0.24389985147671853 -1.461789201320909
C 2.992605010404198 -0.5809219996129037 -1.4598485357737911
C 1.8624745779958405 -0.013342900960062642 -1.0869271801760398
C 0.7683596638755278 0.6004705457319571 -0.7634235823648267
C -0.41500845019862725 1.3881143101319748 -1.2114708533241618
C -0.18114327308863595 1.0231581757137966 0.2303836662921095
C -1.1604789451646527 0.13217188329614166 0.8427116933794794
C -2.415864902761105 0.06972267442261718 0.43690864872186297
C -3.3795329135091365 -0.8072079977191094 1.0396534078464328
C -4.589437249260152 -0.3403597803681177 1.1766961318163274
C -5.780546478496397 0.20721948160639 1.2759636980552531
H 6.070083931775039 -0.2652527732451999 1.0690036350835928
H 4.993394501184995 1.2765338319169643 1.4578674238341756
H 4.615914531866517 0.7574829802078694 -2.270413319741054
H 2.9269174831515294 -1.6083165556704586 -1.7280227712817602
H -1.1245838962861356 0.7538377453401052 -1.815686599245102
H -0.2922987462543149 2.4180990093202572 -1.5531104699934102
H -0.8666653458561613 -0.5084740042074297 1.660338444303667
H -2.7159040479623475 0.719822397631932 -0.3934992760838901
H -3.246281279447435 -1.794861824768369 1.3946225343456875
H -5.9491825853643325 0.7346088812952978 2.1776646790707352
H -6.410346681814399 0.04823184034762041 0.44160455609416743
