30

C 6.454959372408144 0.6675965030149904 -0.04134451814352654
C 5.493930478079584 -0.06248979764389868 0.45216043436275316
C 4.494351432611709 -0.7356372249420448 0.9634478155790123
C 3.433284968397935 0.0536247057757235 1.53602256770341
C 2.5157619892484138 0.5246752084134481 0.7015604323444218
C 1.763230268455342 0.862546100404694 -0.3039828696237392
C 0.7536303686474153 -0.054812347677938564 -0.772124332194598
C 1.0520259366952416 -1.0531870433315456 -1.848262995142602
C -0.4633965635209806 -0.029923234699324154 -0.25470707496975864
C -1.5037354981543682 -0.9418281016945124 -0.7051630481153978
C -2.7165452367305796 -0.9137771417692276 -0.18643360672737902
C -3.0292149099455306 0.0690577138747726 0.8806279035115165
C -4.2434681429630094 -0.3372127617509616 1.6198712951163188
C -5.19387873698481 0.5546620040623724 1.412213088502899
C -4.693114319034006 1.6039817941642909 0.5342935788225572
C -3.442978609432856 1.3252904682408375 0.2261535658526274
H 7.237457793192234 0.907049030202245 0.6354599740388981
H 6.338087700014291 0.9381370823828316 -1.0691138649580487
H 4.5844067206171495 -1.7847826649815137 0.8953645572701618
H 1.915120146059904 1.8132961647469719 -0.7617254443925376
H 0.7977905068240077 -2.0654785544759675 -1.4303137335091083
H 0.36685467983152514 -0.808924667628369 -2.6844863617002437
H 2.1040508568406877 -1.0219143252605263 -2.134393198566783
H -0.7087087483899441 0.6762878194542434 0.5204138696160358
H -1.2432955723836905 -1.6460585750059138 -1.4845120165526335
H -3.4595263586427825 -1.599860258504193 -0.5414468207032408
H -4.357499136212986 -1.2220702345242398 2.239554034273748
H -6.181749836082264 0.48643791170813555 1.8431694229712365
H -5.240532730610428 2.4855112560900703 0.17563682532517785
H -2.827298818834779 1.9455970664764293 -0.4179394799913227
