33

C -4.242872667701269 3.035235905536661 -0.05025166253177602
C -3.797799216392383 1.9512658234082798 0.5491061003740831
C -3.2792813532674336 0.8752243018452996 1.0989797755258228
C -1.9763766167045187 0.49423928462680267 0.6308656107863331
C -0.8309366950580359 1.0449936491562624 0.9613359118409032
C 0.2967614773721732 0.37097416188181914 0.26779452965672584
C 1.6566181766562005 0.8115088818587892 0.48075463491231896
C 2.7377457025517717 0.3095238245013771 -0.06427525574070923
C 4.100862293465077 0.86538131197203 0.24501023011348827
C 4.981455298560557 -0.19612690921173978 0.8553723620937956
C -0.2165072994365769 -0.5750640463334611 -0.4660321880736313
C 0.5113471757110112 -1.521421885691226 -1.3419424074070312
C -1.7004546182666422 -0.5916554691157793 -0.3106163227892777
C -2.0711111953337182 -1.9339042217325892 0.217912928172298
C -2.96203196843528 -2.6548414309188013 -0.4230243235293467
H -3.986134069638091 3.940773878938321 0.4327530171117713
H -4.796293063739105 2.8513797089048323 -0.9343551168607263
H -3.8953473885192613 0.4219840453208409 1.8247357633750674
H -0.7657123257810223 1.8725176510533101 1.6471467990667696
H 1.849296526201522 1.6587688655990493 1.1688574571658032
H 2.704209744947839 -0.5004959659057934 -0.7396804968727176
H 4.573089589159408 1.2257527135907236 -0.6786755312555713
H 4.018093380506698 1.7032093589861932 0.9371104609799267
H 4.645963510862723 -0.44295565974873063 1.9000960050152216
H 4.938930953557647 -1.1316434138689047 0.27052101611483154
H 6.016715024863229 0.20864752565864053 0.8662313044633181
H 1.155874417321382 -2.186524353275586 -0.7467184811793548
H 1.0167643834674764 -1.0497205599318558 -2.181992377486637
H -0.2477656773234498 -2.224221393729207 -1.8109249915429546
H -2.1892596730451954 -0.4183507364317281 -1.2873914859647249
H -1.6113825847604346 -2.3204811380297614 1.1272700433587313
H -3.415301373463981 -2.2636587580936256 -1.3273661739511329
H -3.2191598683384215 -3.630314950820873 -0.022552848156134793
