21

C 4.0650222218278405 1.8245252261913774 -0.6482118896317693
C 3.2882139273445468 0.9863032474662461 -0.03095304256317194
C 2.4299699769830925 0.18679786870219364 0.5739153993189574
C 1.0480983825142483 0.5143019721264875 0.42353989404047554
C 0.12177138075065243 -0.4407127135228485 0.3265376403163172
C 0.3981965956546098 -1.9148191806454145 0.3611730890701914
C -0.9521150858956167 -2.5134282982717777 0.21724272144324502
C -1.8820162345549987 -1.597219951876789 0.11381698249760466
C -1.3170290946607228 -0.25729640181420893 0.170513936056642
C -1.9105789283960954 0.9240550626164222 0.10262042103727562
C -3.3494573390651836 1.1280928189104196 -0.053495966471908914
H 4.381143460318017 2.6682653035565735 -0.07435909095170073
H 4.29458300768833 1.5683341449960586 -1.6613202111249654
H 2.8848299893569993 -0.6055437777387395 1.099990680040314
H 0.7245125736291816 1.5452491870991225 0.38525424913655476
H 0.9785575267460714 -2.2163178869676425 -0.5526361612349328
H -1.1032639727102767 -3.5960428609371324 0.20439948100196093
H -2.96015587425236 -1.76466504087681 -0.0021011344293373167
H -3.530157794875572 2.209851341670661 -0.22634704424788643
H -3.657474311002723 0.5905027238709902 -0.9959348737463294
H -3.9526504074001303 0.7597672154447265 0.7953030063177374
