32

C -2.318657374736806 -4.4036875291297575 -0.8382992827163357
C -1.9658255769470938 -3.2596094347454483 -0.335428178698849
C -1.6660947132089714 -2.0806005227447777 0.0977597963998108
C -1.2587733788906674 -0.9381089718819587 0.6472402088547304
C -1.7384686434953605 -0.6397649502012397 1.923663241846394
C -1.1724616306915243 -1.2860347495494036 2.936670457133816
C -0.5741331495062332 -1.9563616188320514 3.8864837133715477
C -0.3420595446637518 -0.09830764086171802 -0.14519646060447144
C 0.17581944738329552 1.151074295735213 0.3110376486810086
C -0.044723519612878425 1.7565356412394917 1.4389827507672126
C 0.6275754100150123 3.07064104260815 1.6736524273167814
C 0.4172880960647715 3.6924558672286523 2.8008129140804385
C 0.005493237661865028 -0.5665796624646793 -1.3585756307367354
C 0.8362380216038153 -0.05738727634307246 -2.3697870103409717
C 1.5061924317996498 1.052881430635151 -2.374737051461408
C 2.3519355460890528 1.56224369997027 -3.4146769307064613
C 2.559727423621486 0.9322605333391619 -4.5442552531604905
H -3.351639150495555 -4.677750946312757 -0.8612343432733958
H -1.5698613871757325 -5.061378995064667 -1.2253539652523724
H -2.5206429269998956 0.029355247090778264 2.253590325124059
H -1.022102444986278 -2.886429160991426 4.124656425959996
H 0.2809401126588985 -1.4786037760829034 4.290706919737516
H 0.8600426176042134 1.683615310162378 -0.3848017943475237
H -0.6657653905489792 1.395212321729883 2.2131322875524386
H 1.2673822261172707 3.484016072884312 0.9240121951392699
H 0.8771764004814121 4.630000535366816 3.006266556379118
H -0.2300371589739796 3.2753520974268846 3.5608133245376044
H -0.4770285113193469 -1.5558519591185358 -1.5762697020905165
H 0.9678012353999264 -0.6530123851856721 -3.3130608062361717
H 2.837471885605687 2.5215452102328317 -3.2395891071169
H 3.214804164757569 1.375917236510421 -5.292884529018309
H 2.132386245627641 -0.013636963033115105 -4.815331147582198
