23

C 5.273603153564976 0.5415806009452794 0.5295782560801867
C 4.420383809628626 -0.459517571833287 0.4806592266391112
C 3.5454427521564913 -1.4197740724428172 0.35828118335402415
C 2.7129127493299436 -1.3868910283968157 -0.7999872095425368
C 1.864421808583919 -0.3787345810834712 -0.9283221436647292
C 1.303463235469215 0.8217579156476634 -0.9255230054343435
C 0.18230137324744855 1.0188535277310966 -0.04377951992415938
C -1.0011765514925488 0.5007332017468417 -0.18958894511172125
C -2.049881847232742 0.7725483813623778 0.7648291987932859
C -3.27298596476374 0.28804813370054044 0.6896791063928446
C -3.718087273546577 -0.5934277674705307 -0.3831010521348727
C -4.969891004058285 -1.0607314687656384 -0.41761584898071263
H 4.913371106312621 1.4028336025501313 1.0242757342869397
H 6.204082258419904 0.3489959825056699 0.06647732631412066
H 3.558844875362103 -2.1266335299957486 1.15432359895256
H 1.7114502830522635 1.5770226171023172 -1.5712111810247844
H 0.37646026671553656 1.6739280943921127 0.8252613904287167
H -1.20371917983826 -0.13572215639665647 -1.0266135722206942
H -1.8141519784344158 1.4299627037264195 1.6155198116868141
H -3.9970303151166493 0.5609536265199928 1.475001797153336
H -3.0628949154178664 -0.8989066249477581 -1.1805356076180404
H -5.3261555874184 -1.7069361128103595 -1.1883214754135447
H -5.650763054523443 -0.7699434737874484 0.37155171632814904
