35

C 1.698227940911631 -2.1073962384918614 -2.99528926466089
C 1.3389068979578802 -1.4826490967102293 -1.887752808880782
C 0.9214162349967578 -0.8180304419249855 -0.8528278116457478
C 0.04210154138766241 0.330074431015249 -1.095202754273714
C -1.2967971299817744 0.021346022513130038 -0.4011288566205191
C -1.1233894906195676 -1.2686255012296614 0.284052156258112
C -1.5421911965313229 -1.5410240338728232 1.5147475606286642
C -2.256085030807632 -0.8095223125879554 2.5933729935078396
C -2.134296092261424 -2.0633180849771113 3.3339554379920977
C -1.5089342784872486 -2.702363376852377 2.3786877645869793
C -0.9655173220271694 -4.08571293319596 2.1930257268152125
C -1.5235485613750872 1.1495477029082897 0.5128597712268685
C -0.45603204932118085 2.0012925510937487 0.4912579529849775
C 0.4979385046370146 1.515751023276657 -0.401335909858166
C 1.6614896154017973 2.2067128284956183 -0.5612431645410666
C 2.0413129229088907 3.1327965820901187 -1.461919162350709
C 2.474836077305191 4.0091243890875115 -2.3129466352410097
C 1.5517505789228803 4.74595954699126 -3.042902690098502
H 1.058433107280892 -2.8952087650041802 -3.284480279698902
H 2.582493744063937 -1.7245406057416093 -3.4344442792740044
H 1.2568072636712213 -1.1674663048094795 0.08038930302624671
H -0.1468850874421899 0.4962104079478337 -2.183192411334191
H -0.6140751358403599 -2.0705944505035654 -0.24616091748458063
H -3.300972089247237 -0.5514503171719406 2.3074155391926072
H -1.6589010263112614 0.03754731598564347 2.992541479065261
H -2.436442209489449 -2.3970496035747484 4.323330955941826
H -0.3876282823659481 -4.146473676343059 1.2536801779376212
H -1.8246806195188325 -4.7931817909195695 2.205402300198215
H -0.25804692470437857 -4.269514733629624 3.0247194863440954
H -2.405941788491139 1.2933839439459387 1.1036132119016575
H -0.5335807757428181 2.884090934379336 1.1561101529540352
H 3.2754846660824297 2.74454950577623 -1.0189996598562576
H 3.523487872937475 4.3002053771171065 -2.595174738822701
H 0.5212679637991579 4.579070055851322 -2.889796640228405
H 1.9279901583143868 5.446459649148206 -3.7236021119270206
