33

C 5.722177798341526 -1.0020506161728446 0.20451294256205374
C 4.52832980465664 -0.6815785574524883 -0.24749084920727846
C 3.3483935571264505 -0.281435157223152 -0.644005548163817
C 2.8847148459964522 1.0034429807627836 -0.12617190373837822
C 1.4259920206403425 1.2117983416281226 -0.4133267860032996
C 0.5175291511072898 0.3537530111944785 0.07102949461232684
C -0.9058565974071637 0.5852972125923661 -0.22812006984439176
C -1.3212436089558504 1.9765588492150397 0.06898431620553447
C -0.8006667849071994 2.6944540986260446 1.027241633636917
C -1.2342500335499038 4.084431922261605 1.3037069121810485
C -1.2354295953331607 0.23998163518539578 -1.6824564450018602
C -0.9134466293850813 -1.1977815216774212 -1.8866742941769394
C -1.802157409877672 -2.0824283780001767 -1.4945456131313601
C -2.8559434280915466 -2.7498704681488513 -1.0460064577423522
C -2.9105896325897205 -2.9955281749495946 0.3695530829751569
C -3.935874151094701 -3.654036472382324 0.8658162621319705
H 6.524878186377656 -0.6603944475423673 -0.39445063224500193
H 5.716112774353161 -1.5570887749767575 1.106004351036701
H 2.8628364897714995 -0.9486822982172021 -1.3041633711471372
H 3.0742916956693462 1.07366858904662 0.9725567250405057
H 3.4173196545321747 1.855190625639558 -0.5964581379257377
H 0.8567469539435089 -0.48652927000213914 0.6694239699088906
H -1.504762224078953 -0.13862174682520698 0.3823370623826399
H -0.024777956990699134 2.2710559972685327 1.6482255564694608
H -2.2440112916974306 4.212164968833687 0.8219864147326026
H -0.5723199650210177 4.852221957336799 0.9050531844331497
H -1.3670352377181696 4.2754084802891406 2.3863920896841857
H -0.5402721523566514 0.8154683851333293 -2.3295830712594783
H -2.2698163534336935 0.4943397495326354 -1.9067055115066447
H -3.5581538546935354 -3.035238691876403 -1.7806739808587797
H -2.1440343410743026 -2.6652951067604027 1.0683048613754846
H -4.721018668073675 -4.002764513630121 0.2196254065864475
H -4.017663016186456 -3.8599126087087567 1.9174519977404216
