34

C -3.9239125119828904 -2.1234967898160875 1.121103625248211
C -2.881490592912863 -1.5665711512231801 0.5451348631703101
C -1.9098708539092384 -0.966625522977713 -0.09055922334160306
C -2.2800466351543047 -0.09118021715304002 -1.1911659453943346
C -2.194270864581321 1.387336375750859 -0.8492431268292383
C -3.096017966661853 1.757783549581422 0.28913235402387594
C -0.7766303730262728 1.7159868459889276 -0.6224774916878791
C -0.11569470902356284 1.4402076634377892 0.482991837880069
C 1.3185012075073157 1.8372108183428346 0.5620386089111543
C 2.1729270278172637 0.7327113116979344 0.11330912062339465
C 1.970700805694745 0.13453790325710493 -1.0233215967200748
C 2.791339327174311 -0.9676135555155132 -1.5140682200249493
C 2.4327162632706214 -1.4562140183195 -2.7041072713184975
C 3.8746377418679976 -1.4436685356927184 -0.7513179975636106
C 4.077970446275695 -0.853233316332889 0.3807058759775228
C 4.182847614222146 -0.5700035662477217 1.6469254109078706
H -4.331647130610269 -1.5674491526897518 1.9234757855368037
H -4.213680754980657 -3.050870874516037 0.7037937639804367
H -0.9411697238620373 -1.198394153812138 0.28506156173830793
H -3.2469681586223937 -0.3642627025839779 -1.626211601744886
H -1.522183691751373 -0.24602299545094422 -2.0144916456056916
H -2.5432454278375265 1.9413678019298624 -1.7474277434362135
H -2.8948862365593997 2.807020034742997 0.5550063104988078
H -4.150967706426707 1.7091939441926063 -0.09023885431068783
H -2.9529539238664912 1.1477696589253292 1.1947436618153797
H -0.5643250949676138 0.9394422196678713 1.3358990070500492
H 1.502478326846751 2.136907103327392 1.6120537152056056
H 1.4694632584334866 2.73404471325315 -0.07847213508901667
H 1.1223527195859968 0.5064709189494616 -1.625635201946547
H 1.6182420055350368 -1.0942166666957478 -3.2765729670666057
H 3.029297521410892 -2.273517763441531 -3.0842572159958923
H 4.475110828893576 -2.2531527393182214 -1.1218302811447862
H 4.760151705345616 0.2694700416178927 1.8007740848186988
H 3.74122555685567 -1.110967182876013 2.437506874013105
