32

C 5.015414482575094 -1.541031417012659 -1.7961935211098365
C 5.065020027033987 -0.6785176372016494 -0.8308145618559842
C 5.033316168559774 0.0005897986358896247 0.27122736060599123
C 3.8242280401791198 0.6567711784330952 0.6097431196253145
C 2.8750875860055873 0.21749606608299565 1.385217875204754
C 1.6587047182303898 1.001597195447297 1.6595671900396554
C 0.4413771202991421 0.39592631762833835 1.0592237430147904
C -0.6097804892544201 0.05918506089054184 1.780620243907473
C -1.8227612953873953 -0.5408926776001619 1.2052915398879294
C -2.8519069359311855 -0.864377823915909 1.9530784405511024
C -1.862649598702048 -0.7743784933255061 -0.2367754803063888
C -3.12957937685807 -0.3760375872526289 -0.8824607188590285
C -3.5934029791883626 0.8607572913671835 -0.818037095082274
C -4.862657803286844 1.19913960721641 -1.4816430938531029
C -0.6618320962965829 -0.37622300110039486 -0.971153429582577
C 0.38637850790804856 0.15720884272463334 -0.3748732988123458
H 4.744960058330884 -2.5484779416334087 -1.683849886122861
H 5.270549587598435 -1.1633717829588754 -2.7412177690250616
H 5.866854810726845 0.0734539160156593 0.9076456420779052
H 3.670040821737758 1.6585959105952384 0.16253236670483456
H 2.979252325451883 -0.7466888558412363 1.8408483945238356
H 1.509441350094882 1.001151252775968 2.765447589573159
H -0.6217920889556329 0.2156196391620468 2.855789010496548
H -2.800925275368481 -0.6804407543884592 3.033884415024323
H -3.717141917217032 -1.2959647748970802 1.51911755263189
H -3.689956129182541 -1.1257075463004569 -1.4233392869508599
H -3.0106214509618607 1.5950914019246407 -0.26802280358578834
H -5.55659155537229 0.3303611200012354 -1.3410636114775607
H -4.755876935345805 1.3245859985072042 -2.582500998196228
H -5.338303918080415 2.0957146401614306 -1.0149315135735077
H -0.6807359948222098 -0.5469330651931567 -2.0542730244316627
H 1.2258902354677745 0.41579812104630387 -1.0198990863650996
