19

C 5.60949017982627 0.14170359643286862 -0.6626669572333153
C 4.4297937888250045 -0.4413137931067056 -0.6213359472224504
C 3.1761541851112645 -0.7783999575217057 -0.5456499555981268
C 1.9293278557387685 -1.1076998888402183 -0.35613963055562897
C 0.9300374322250812 -0.25420515936945415 0.22557406933631105
C -0.15954725194242741 0.17138817178533908 -0.3949395786670961
C -1.066610566163639 1.0205071347101689 0.31794160223505646
C -2.203622482103039 0.6568996248990453 0.8508434391157881
C -3.378872636360285 0.04390416677205105 0.900983445560945
C -4.381403306904384 0.09622290015799688 -0.1623611457703216
H 5.880789536634457 0.83378567553757 -1.450664106661832
H 6.351528375932559 -0.0581648821074279 0.10182952373789855
H 1.6377971850130921 -2.1126117702262532 -0.6687616363393523
H -0.30411028998515033 -0.15210785801462026 -1.4213351986405796
H -0.8694042719822181 2.043090066031847 0.46242907728241034
H -3.503391884361433 -0.4819792237648087 1.7834344095344075
H -5.345672690358358 0.5055029155876662 0.2488420314742786
H -4.101121008662307 0.7949840196864263 -0.9788033533300097
H -4.631162150483206 -0.9215057386498337 -0.5703144438612509
