14

C 2.8313121139445423 -0.28744630470325433 -0.11964738281114197
C 1.5786395994706548 0.03407899411891957 -0.10728112554887968
C 0.3733700043186456 0.4876241823611954 -0.1957847192260133
C -0.7480663739109762 1.2356031389804338 -0.6791254339492858
C -0.9866777556702144 0.3798848636656527 0.4680624460261715
C -1.5678269122960837 -0.9891071179062416 0.3894657061777268
H 3.5524261336948153 0.26917944216747963 0.4325828374579749
H 3.1376817540069655 -1.1251737920442177 -0.6956460209402987
H -1.2465638811855353 0.9535804172334388 -1.643786184032329
H -0.722926393802846 2.3305704989406304 -0.5327360977055342
H -1.070774450387228 0.8934135850340319 1.4660974669203073
H -2.5822459410637264 -1.0455105754743124 -0.009688541161873255
H -1.598043878864635 -1.4273368441959577 1.4275139998009996
H -0.950304018254351 -1.709360488177797 -0.20002695100745002
