18

C 3.1593918184471947 0.9973881924319855 -0.40240141776380123
C 2.2968741326987074 0.04191354040280446 -0.7110937168148828
C 1.4110525919131123 -0.8906891656424457 -0.929381644830474
C 0.5029409191937423 -1.2024879330343368 0.16360227488164336
C -0.675233659747825 -0.32300408517745277 0.24068030508964078
C -0.9943232964267582 0.6886866619914785 -0.5462651789454889
C -2.2646334079215262 1.2831018814037642 -0.09361511258492589
C -2.642300756839422 0.4730223778511856 1.0715654294808203
C -1.7141308631453724 -0.4469981139070849 1.2480807127741147
H 4.061572449699216 0.6464824759067187 0.024224818115397218
H 2.824033818946527 1.9743899727274095 -0.6251613894854072
H 1.465168724772561 -1.3200092710323712 -1.9099150023276859
H 0.19877403677500313 -2.2807580012478916 0.07614633285528276
H 1.023539943692406 -1.1499499252314886 1.162451650053848
H -0.36515713757805923 0.9813670550689596 -1.3835777152739697
H -3.021908040646271 1.145987880919217 -0.9191617748477057
H -3.5312749897562186 0.5780155924409208 1.7131416770692787
H -1.734386284076929 -1.1964591358713896 2.0479103118691695
