42

C -5.970059503576101 -1.9146556659127567 0.49664026150655455
C -5.843340258270531 -0.6046537561374654 0.5666219129160526
C -5.62824017992024 0.6896690063770947 0.6549485303892778
C -4.282172489359918 1.0878650130618894 0.9452367398366512
C -3.2806495914603597 0.7274755680184803 0.1798592701282743
C -3.5273274510154504 -0.10580737891856376 -1.00959869411832
C -1.903894522878526 1.1511632527294302 0.5012680426411403
C -1.070438471230088 -0.10794923933487839 0.7112525101706243
C 0.3641679326648959 0.21616029486842317 1.0520919044107986
C 0.9916095911730074 1.0095088733245927 -0.07136501014858512
C 0.9185581723065004 0.15660000559172452 -1.2923863760377374
C 1.7916840362133162 -0.8359553898868837 -1.4066846084429911
C 2.8157216327873096 -1.1019911500928898 -0.36008868723638304
C 4.0227886238062665 -1.8411648514581231 -0.8864223893923682
C 5.170468135038976 -1.0814720487460872 -0.2974170197056564
C 4.768336329313184 0.05879485725639147 0.2206572790073964
C 5.677092426632128 1.032914460097508 0.8787908259823578
C 3.3322084633322664 0.2245517800805453 0.05873790166971525
C 2.459199337862427 1.2044112750289713 0.18922188852137467
H -5.817499101369743 -2.3161652597818834 -0.4704107160789548
H -6.205500003809484 -2.3802341539052296 1.4163480656418275
H -6.488012489636774 1.2803177431321342 0.498331305616876
H -4.13485787945601 1.7105953427136846 1.8425364338578454
H -2.752404066106908 0.03988587061130499 -1.8008534815533246
H -3.407657581776213 -1.1774188002306745 -0.683984936377969
H -4.53070449097645 0.09741473689661474 -1.4172562457402031
H -1.8360539586471514 1.8372871538792763 1.3428811295457874
H -1.4793978145572924 1.6548961074506259 -0.4115319980986018
H -1.5021548873122306 -0.7087160378217044 1.5629096808187666
H -1.1382135206224522 -0.7793374867515082 -0.16849932687574332
H 0.8876135486864122 -0.7149037886341474 1.2628321339535573
H 0.35530334570310773 0.8008314052439591 2.0081169380814106
H 0.506640635503783 1.9796640151437295 -0.1763636527929907
H 0.1568318452304406 0.38666734757613447 -2.0286932450292836
H 1.7666179600417413 -1.4747289394343155 -2.280630555313047
H 3.9875509816856733 -2.8712067979062956 -0.4539598062728247
H 4.063417109596168 -1.891580940043271 -1.9795392947981274
H 6.177390401015474 -1.478067843703038 -0.32825345636804654
H 6.375595986785475 1.4448831787900918 0.10350671420256283
H 5.089626586614245 1.8866091397252145 1.301838599084057
H 6.297913551310537 0.5324500514792498 1.621313822051701
H 2.8222416286778893 2.17539304962273 0.4945481247340906
