44

C -9.284852342477786 2.3599587401836355 -1.2953800385981924
C -8.903332215749925 1.2870213950854927 -0.6946282977066316
C -8.497463103335201 0.25547803409353104 -0.028672045298682076
C -7.941915643655713 -0.7661932759861114 0.5438407316782173
C -7.176084030283666 -0.6722238803282166 1.7834877650114485
C -5.872823562589464 -0.536240178975694 1.7880883398323317
C -5.077479527114899 -0.4670996938673841 0.5728231780710092
C -3.7724775768502146 -0.3308240086536075 0.5871425038106308
C -3.028472435540275 -0.2673157029283564 -0.6522296329169976
C -1.721141226104221 -0.13182640329104775 -0.7287106492341491
C -0.8605511253446605 -0.028819781235624467 0.43569513566547846
C 0.4472584440119062 0.10634779331552228 0.32793841047107947
C 1.0193003587558458 0.15102819950391252 -0.9877677091406638
C 1.960042024466581 -0.735211795876495 -1.2298003554242525
C 2.95251991414784 -1.5935851209216945 -1.3509207568316564
C 4.239811891002029 -1.1106331544719914 -0.9588976906927527
C 5.008870273319915 -1.629689881300524 -0.016241205343918017
C 6.248361913233518 -0.839425382323084 0.07590329111385022
C 7.271382789595003 -1.0328776461900213 0.8938477132148667
C 8.391507261883023 -0.14468297689456147 0.8244462995372357
C 8.13316120179294 1.1266747382024584 1.033612383501036
C 7.792455267997939 2.3822720314027217 1.2545074416910742
C 6.091699602305977 0.20603987443324243 -0.9404984339949256
C 4.92638935865141 0.045150523508004844 -1.5377573970792286
H -8.672258345976985 3.2404390506249685 -1.2693631923551019
H -10.226759623549016 2.396607436987394 -1.8367029028347759
H -8.019788643743317 -1.776249507982463 0.11782437321135503
H -7.7367589513445285 -0.7202863407705791 2.700041153061408
H -5.350123217031226 -0.47098509939534317 2.7316132633516945
H -5.585939067076949 -0.5308611136517893 -0.370596572163953
H -3.290770766316234 -0.2698155934072396 1.5339418827383104
H -3.6115295785575765 -0.3387554669689025 -1.586771000261746
H -1.2576737072835569 -0.09456144164227583 -1.7024583204438224
H -1.29962652677467 -0.063544815036977 1.4075531298312531
H 1.0302979499994915 0.17751257086581365 1.237674813530255
H 0.8118644746618012 0.7825747462963187 -1.8037155269622873
H 2.651976061851877 -2.5316496503147774 -1.7250650936809517
H 4.801062098133751 -2.4892280635160007 0.6061151486231735
H 7.214433301230588 -1.857341145803773 1.5810277023684425
H 9.408769059733746 -0.351805358538752 0.628768981043465
H 7.836103342374827 2.6733046641344287 2.270112098835078
H 7.523169721364789 2.9201098902409255 0.385340056444619
H 6.840387912666198 0.9642934513166782 -1.1312692493391499
H 4.586996993514612 0.7069193400719757 -2.3333460897242118
