17

C 3.6476398367023943 0.41365309695844815 -0.35608730157658414
C 2.484141090216874 -0.16827239467220836 -0.5329195535310635
C 1.2964168855939564 -0.734538827486533 -0.6159060531772564
C 0.5152439548244092 -0.7803238859806163 0.6147550078529718
C -0.9560509136543526 -0.9381262926986594 0.2166595112515918
C -1.614413074277933 0.4180213139176937 0.3010041498057764
C -3.03523992140627 0.3208938516856428 -0.15121714763190036
H 3.6401627706481166 1.466835334567159 -0.5151499430106541
H 4.429179662913216 -0.23807647349455846 -0.0805643131600016
H 1.0607269181239478 -1.0883877489666303 -1.5825041437881235
H 0.623565379771687 0.16542162703996832 1.1951619362685564
H 0.7693584198317321 -1.6016012799824781 1.3032066938503382
H -1.5088338037139288 0.7623593052125404 1.3499582002803885
H -1.06807258771718 1.1561020545537057 -0.34752685912177567
H -3.1993772335564983 -0.5403330679546963 -0.8617042295180001
H -3.409171464155284 1.2436317814421936 -0.655835428849824
H -3.675275920144808 0.14274160585901094 0.718669474055534
