31

C 5.37910665657671 2.0546728004520687 0.7579363679202167
C 4.7955565068986035 0.8889056732675791 0.9099448569576211
C 4.173256954933123 -0.2444812438635906 0.9577530028529395
C 3.743900403808625 -1.465209450329741 0.7833471975450829
C 3.2193440826119453 -1.9540834243932526 -0.5049692529178109
C 3.162770552382118 -0.8130406357342292 -1.4383558097933578
C 1.9043923002550742 -0.6623866088561638 -1.832841709725812
C 1.0372974800234505 -1.6564315058643342 -1.2184110803188628
C -0.37810690181716244 -1.7831793471925805 -1.4230077835575934
C -1.1188619375121271 -0.8492324632477578 -0.8896292766081735
C -1.7848435240606502 0.07912108348304113 -0.23768943776091178
C -2.130698867028209 -0.23455480327835518 1.1433575295116325
C -2.6567873743105834 0.9573273225080348 1.8846928438409978
C -3.822492090577738 1.4782056378679183 1.5514930530658948
C -4.6293226708477535 0.9323146834923679 0.47613527140841694
C -5.787937138721732 1.4667592944005023 0.16054872948538468
C 1.821769322853105 -2.396530807306992 -0.45085294732055453
H 6.457126068399631 2.1509192373441133 0.7683406919621597
H 4.773994265145549 2.9409080618412693 0.6189948625561984
H 3.78358107723463 -2.1308776402474283 1.6344534196193004
H 4.019934558094229 -0.21199011595483663 -1.7376877536075526
H 1.5314295713391959 0.1035643526212398 -2.5320417251025877
H -0.9265745612820095 -2.516389969378716 -1.9386469264935873
H -1.9798140260171475 0.9413305796299847 -0.816093334567516
H -2.9146626768014525 -1.0277477986388814 1.1432221286127784
H -2.1079985587042667 1.3984829404813617 2.6812313647835806
H -4.205473787196475 2.346666135322613 2.0919109598951158
H -4.2430211648789165 0.07307899068715064 -0.053337899681983256
H -6.209315229603183 2.324436949198957 0.6639379284662207
H -6.371815976438713 1.039464355202904 -0.6477085987947955
H 1.464266685242403 -3.2300222835142596 0.14446378463394552
