20

C 4.3265219174157785 1.3150292988805403 0.5862303897604398
C 3.2404136953272054 0.589296201597763 0.5562247761138146
C 2.1638739908134528 -0.063206964403472 0.22517635663280983
C 1.103136452811654 -0.6759335817697294 -0.21377053996901707
C 1.0070818638174737 -2.1512310345122323 -0.20183763373852956
C -0.03359005263931204 0.07902404975140746 -0.7355664380238245
C -1.1086984841766512 0.3383182479351106 -0.012487032475994296
C -2.1731202126292395 1.0821279235417836 -0.599762801695001
C -3.3923485515803917 0.7681990517841775 -0.2650312877742854
C -4.569629453190155 0.37718883838183737 0.13700133389559208
H 5.289823467509701 0.9279375076731917 0.25275795888255026
H 4.308620402553404 2.340504515467035 0.9481441317826244
H 2.031593498970082 -2.601513410274219 -0.3544726059352654
H 0.5665931178225273 -2.5234066563707693 0.7672363244997182
H 0.3729425336019861 -2.5554517190055694 -0.9957971940401612
H 0.0639809740609074 0.4132769527137361 -1.7585400058551166
H -1.12860814600156 -0.03019949332570479 0.9997069769922481
H -2.115116238667559 1.8906279714240724 -1.3013915474466464
H -4.938896495569317 0.8670856569341854 1.0002014319344652
H -5.01457428025029 -0.3876733564231516 -0.45197937270914373
