42

C -6.470070368141712 0.1713637237859086 1.192468518371679
C -6.269541184763965 0.7192370508540511 0.013101642070300623
C -5.984851329957025 1.2434960734438505 -1.141185818971793
C -4.5669427946937295 1.2398472151619395 -1.5304188596741142
C -3.770755330969592 0.2056934739882144 -0.9106733923362585
C -2.4702257420981106 0.30450824108174784 -1.093739125426662
C -1.1964618509452334 0.503224513041684 -1.3443751432191686
C -0.7016435246242847 -0.12408745459260068 -2.539857272307996
C -0.5073736739811349 1.3223481342150385 -0.375934074855198
C 0.40082386099383815 0.4405136400638451 0.4094858179663276
C -0.23619188535729108 -0.5620137006121989 0.9898612521155933
C 0.4231487139233281 -1.612219899226892 1.845968396407946
C 1.6547120576568979 -2.04881180750611 1.1474126303725702
C 1.5601628371298062 -3.2142813722221018 0.5365890805920929
C 2.9450969702681755 -1.3739229015772598 1.0429064236758174
C 2.873292759357736 0.06687053180429788 0.6888731632370423
C 4.146180881769777 0.7722262103297174 0.6165729215939156
C 5.252925526919628 0.12553748665854597 0.8580038622778842
C 6.598938819215922 0.6435305292756348 0.8366249687775047
C 6.806792314004409 1.9114018652285873 0.5464953018952196
C 1.8150948306850248 0.7885715647543865 0.4333286236038445
H -6.4196839954117815 0.8449274605663976 2.0062170381243565
H -6.654102404061861 -0.8699692373866468 1.1695371542975308
H -6.811134438512537 1.6181374255988865 -1.6779393543453809
H -4.531348779581055 1.0981211219455218 -2.643961771249307
H -4.164250652238046 2.2544130030133505 -1.2568734513544184
H -4.024979029138796 -0.6303786342629486 -0.3288477107846722
H 0.38381303184734317 -0.35429257744638154 -2.499424424905108
H -0.8304817507924008 0.5780673935062369 -3.4046218693950343
H -1.2465666500416155 -1.042512961624493 -2.8208748219805773
H -1.1279506199768345 1.971637194800646 0.22580413825592707
H -1.2848828863381447 -0.6413455906719813 0.8491834362313256
H 0.6542030660280169 -1.1873462017847236 2.847739105450708
H -0.29553062967471777 -2.450146252665003 1.9211669735817714
H 2.3903197772464533 -3.656765814617751 -0.01641445925542728
H 0.6235654465358016 -3.7525977820025407 0.5855034471081332
H 3.6471095574380064 -1.8415053298195068 0.33434445717783023
H 4.14353252105051 1.8124054571564974 0.36514578492482314
H 7.407995429940526 -0.038315178976847136 1.063595807207086
H 6.003436199572074 2.5682772025695964 0.3259917176923326
H 7.84351331363915 2.2640049369171114 0.541230006581072
H 1.9903116060775177 1.8398140010954345 0.1919898804707622
