25

C 3.87206646382586 0.860420396423317 -0.4095617084363582
C 2.8096234102714956 0.5843413634609819 -1.1072295474017613
C 1.6231339187072613 0.2702179139015184 -1.5570260937000793
C 0.495730794439832 -0.0600057411017753 -0.5812523049516831
C -0.4902160874146589 -0.5703766159949148 -1.4505096991618702
C -1.7313527840174643 -0.7396120819669686 -1.5248008771441817
C -2.7159079591214317 -0.36425660159481493 -0.48424423713142245
C -1.9504722046783052 0.3046593359518598 0.6960726105310197
C -0.9567408865301945 -0.638617701555284 1.2016426036193335
C 0.12339938213208569 -0.219614214904377 2.0845438523314024
C 1.3220486491877608 -0.5332655676384465 1.5742487601578585
C 1.2265901294862636 -0.9788919471291881 0.3495028215578394
H 3.9884509818934775 1.887653929392692 -0.1462276159903495
H 4.498124963150249 0.023519973710015726 -0.18443604547115455
H 1.5516581154250848 0.2747302709717045 -2.595686620158264
H 0.4226259442917526 0.9678874299761573 -0.16760262402813475
H -2.170798523041905 -1.2034547699348053 -2.4226183644105
H -3.4148921894703292 0.3808245528027128 -0.8976662931822429
H -3.256576243007563 -1.2044395742587009 -0.03197542201182248
H -1.6863161163593816 1.338798814425833 0.4691064223303981
H -2.842703128554877 0.478389443196336 1.4002831250498708
H -1.5710322820949094 -1.1869025106892688 2.0296709328294624
H -0.7886368477463667 -1.5953757822683687 0.6532802849847558
H -0.006775282031877007 0.26650216797284304 2.998141544754595
H 1.6489677812586445 -1.910393735299032 0.10434449503358677
