21

C 4.5068688661807474 1.2637283896412643 -0.09528709629041172
C 3.4724873007413444 0.5352656330236852 0.2549933847949329
C 2.3133802542785693 -0.021542785125919582 0.5025457291368632
C 1.2291001392310466 0.29120190647646493 -0.460260553447692
C -0.032616501660905274 -0.4093488303321659 -0.12429869160556212
C -0.15547628221982412 -1.8839651291089998 -0.055702409707950755
C -1.116605066973326 0.30437102326073806 0.13075437868028753
C -2.429792624556205 -0.23416857265126606 0.47555900261579614
C -3.4734690711687506 0.8214915454940533 0.13785212258501603
H 4.658463324820802 2.260917292025158 0.27213334979725085
H 5.201216237006396 0.8307174027405902 -0.767748044608995
H 1.573855681630379 -0.012843800496867784 -1.458348578350758
H 1.0848131847162774 1.3824976440672982 -0.44031704129114624
H 0.7397699512642768 -2.3837551907392434 -0.511156891757606
H -1.0432448613928453 -2.194494605235382 -0.614356478390803
H -0.19355763352751862 -2.2109742097970435 1.0191597383091218
H -2.4294562097109407 -0.4422371076260132 1.5799335807982757
H -2.701437000521668 -1.1591349841782612 -0.030625976784619664
H -4.12753689939024 0.938563504379671 1.0306927349130541
H -3.0206601345332995 1.7984655507336211 -0.0876894649628391
H -4.056102654214252 0.5252453234487132 -0.7578327944322342
