18

C -3.840901972026781 0.19554450131417464 -0.9118667769320407
C -2.5980075351877314 -0.012786464634396552 -0.5138745394334101
C -1.3901770936044904 -0.2055946917009089 -0.037861864048242294
C -1.2406876979228976 -0.06395374922112883 1.4071496116821123
C -0.009460105535216748 -0.7683862597438869 1.917105114521802
C 1.143584823790432 -0.35562665451203823 1.41343153851327
C 2.117965075269859 0.18081240214513933 0.736322868648868
C 2.4502586636434085 -0.38748072414676726 -0.5505029185542777
C 3.43018076312141 0.13404148720572504 -1.2567651421505184
H -4.442086193135739 -0.6721038796014861 -0.9303197761278874
H -4.054653628961814 1.2026065912609598 -1.154029120397763
H -0.6680043163950933 -0.4425175151489522 -0.7720470044953601
H -1.039386206631914 1.0268219651960249 1.6184351404836996
H -2.132160862612785 -0.35601790116474563 1.9601477680528765
H 2.6320784278902636 1.0127919874437443 1.142884094637741
H 1.937157203923542 -1.2339426142774934 -0.9865684159280712
H 3.965705645672227 0.9782637501902592 -0.8567454260844087
H 3.7385950087037365 -0.2324722306047153 -2.2248951523885614
