15

C 3.019827147744911 -0.5256034596381665 0.43502924897657186
C 1.9947539748654717 -0.24984045079514847 -0.3169798992102375
C 0.8775358374585905 -0.02609908877823932 -0.9634178057389504
C -0.32759006754322256 0.1448407783556403 -0.17594286039848558
C -0.6023316181310597 0.7581061736054331 0.9316272144053395
C -2.0239609977701174 0.3915613223895735 0.941985865173978
C -1.6995759629938012 -0.311051122007195 -0.33053618833046083
H 3.199342725621532 -1.5596396313876202 0.6407277091800005
H 3.5612330656206255 0.3340952020702694 0.7580587349059142
H 0.9807550143702924 0.005631710679544823 -2.0086042833088613
H 0.058411519772919265 1.3450450800861635 1.6000564673034094
H -2.313929970242374 -0.2888708493212103 1.7727723224486596
H -2.702879891573815 1.2648842782204963 0.8538620008821552
H -2.2084778258362427 0.14861238260329998 -1.1960510910172333
H -1.813112951363818 -1.4316723260830109 -0.2888503134013372
