25

C 6.251812980173438 0.5160556189758227 -0.846096032080752
C 4.957114926953142 0.4839848778717963 -0.941456961574
C 3.6663355953212196 0.49918559651485245 -0.7864119693150124
C 2.421747782520277 0.8669463345430818 -0.7088494632733968
C 1.1978737661484327 1.0656177017608095 -0.30908388911295326
C 0.25447098593672585 -0.02631677391280741 -0.30509996522207233
C 0.7331759112411952 -1.4100688869212865 -0.2035648517882584
C -1.0346264054908183 0.2261525387351001 -0.39286858944238195
C -2.2186109435487653 1.0493739310668928 -0.5050742071001477
C -2.640987115316279 1.9664891708123136 0.5703480988086707
C -3.3567095397454065 1.5635585688060922 1.6010777528467715
C -2.432453382761485 -0.34520392616184253 -0.4426609886130573
C -3.2257801592785973 -1.3817955052842237 -0.4330424766017002
C -3.825813926379048 -2.5332915869819876 -0.5317715492595565
H 6.823156683710211 1.104020641548602 -1.5341764620651805
H 6.7753709383479395 -0.0416320341802096 -0.08138405341278344
H 0.879141108603016 2.045296120290699 0.021724780209735096
H 0.0073330939087987365 -2.1635893012472263 -0.5820390769912339
H 1.6721176919945144 -1.5902032663231132 -0.7937233979816356
H 0.8953216418968616 -1.674511254408696 0.8766704542220861
H -2.35242786697837 3.028689185004941 0.5187397619067595
H -3.662929613911372 2.2434604179836954 2.3868279298203166
H -3.639455622594174 0.5154613254827969 1.648698632027476
H -4.011538368914083 -3.0200956404859522 -1.46177932640648
H -4.133640161837285 -2.987583853490559 0.3828291103129998
