35

C -4.1914161458712105 1.9692799309734392 1.7962740004281743
C -3.722277327732551 0.7705180887752422 1.5201771666679742
C -3.1885735300631977 -0.3759251441349271 1.191240548895982
C -2.0349498535760597 -0.33116359852799576 0.2987524858547068
C -2.2728616492171683 0.30619934700951795 -0.9988549862892584
C -3.218041333098985 -0.17320893185816943 -1.7908914053404383
C -0.7936185316194037 0.11545212582967908 0.9665928702647795
C 0.34826482252960717 -0.4809299804971421 0.6571665571921625
C 0.3404647631378219 -1.5722035935491787 -0.34534887013806126
C 1.5839147010990229 -0.016300706776636094 1.3324633705127027
C 2.8798012086042557 -0.7429635690141876 1.224228909266077
C 3.012914844621034 -2.0639809677346115 0.6208383722455575
C 3.908438079757149 -2.3750524371734083 -0.3023260598742238
C 2.7131624686156575 0.5188100290793942 0.5136667462513353
C 2.5456140470832502 0.6174591505566148 -0.9383026093119989
C 1.8801460673247041 1.6634622030825477 -1.370947983675055
C 1.2042811211469784 2.7442401027351258 -1.7184078742458482
H -3.7594041718086344 2.423536440209547 2.6490087481626663
H -4.93495203838195 2.313650580083327 1.1272496839015227
H -3.667384360990026 -1.2172601423410048 1.6208573190617481
H -1.7034116308232696 1.1538907468370105 -1.33130577875965
H -3.445358016141811 0.25318612035736426 -2.7661937456563437
H -3.82977751969701 -1.0353635326892674 -1.503903173932582
H -0.8265657815481522 0.9325596307585857 1.7091612435552495
H 0.10608285882358988 -2.51873614626852 0.19261596530161001
H -0.5284372057365637 -1.4552780994930152 -1.0636092669786823
H 1.218871411457325 -1.6053071964325945 -0.9896806850780259
H 1.3850559037832995 0.5210238195515845 2.3147388995932925
H 2.3369370533233433 -2.841074554305674 0.9531707108345104
H 3.925072219632438 -3.3831055848343516 -0.6859972094945719
H 4.63678352782751 -1.6824917816001361 -0.7073319503445279
H 3.2466862356842556 1.3980269641984535 0.951905208725231
H 2.8803896668126576 -0.02870056535794586 -1.701664651206943
H 0.15868862063485964 2.602186501011267 -1.7711617237412012
H 1.8054594744080845 3.5955647515401274 -1.8929039889124575
