32

C 5.167429524056351 -0.17874801557180722 -1.5196456504919298
C 4.368685734673199 -0.6852116590408287 -0.6251351322477396
C 3.4743751708999895 -1.198548129025119 0.19100306507662407
C 2.140068801297376 -1.4294235006248486 -0.3424088886582339
C 1.2165350156165864 -0.32844389894567366 -0.036978885871507904
C 1.5225387225793137 0.40998596888067346 0.974709292758464
C 1.9267226354537128 1.1987126447669305 1.945928114687113
C 0.02204972839850946 0.006579935672262779 -0.7747692084277594
C -0.805603577906695 1.0858444025170453 -0.2629908664629518
C -0.9529337869182349 2.199957105164923 -0.963228062347028
C -1.5274840320866252 0.964715386043981 1.0263174012710676
C -2.4770949386329195 -0.2348535310455449 0.9852604873491355
C -3.4947362590156867 -0.07478057289726643 -0.12242603678872135
C -4.3996755728303 -1.2875401900428032 -0.11037531716024819
H 5.183267511407021 0.8918374232290662 -1.5602572657693834
H 5.708130881731941 -0.8842479556185773 -2.1043076313033446
H 3.853973435995089 -1.383015414445732 1.1614329763067708
H 2.1565390427259743 -1.576900795222911 -1.4374190776609224
H 2.5408404323145057 1.9962237418045417 1.6571082649889588
H 1.5521153173485291 0.8914974641385226 2.8954150077552345
H 0.3487117999666731 0.2175963780761779 -1.8401945041319083
H -0.5642664974309233 -0.9558828085602501 -0.9064858157983227
H -0.43863982597236384 2.2908488684695625 -1.9348852096166405
H -1.5712893720147725 3.0104460622497236 -0.5842148451949354
H -0.894249335575372 0.9053220765252378 1.906164081692331
H -2.2275592799812913 1.8467995521592298 1.1030137672647389
H -3.037100389467656 -0.2482994787343731 1.9423075531890621
H -1.8779879735576739 -1.1656798267549406 0.850145625785212
H -3.033518389835982 -0.010877156316331394 -1.122168648915634
H -5.378695516581457 -1.0823826376984382 -0.6200366286575452
H -4.575570836446268 -1.6154751515326975 0.9475138429938115
H -3.9255781702108434 -2.0960735776609223 -0.7183918056127353
