20

C 5.11550551322329 0.7296931842856424 -0.24837244637151015
C 4.146775149941297 -0.0015736027802814492 -0.7262584491414487
C 3.1067552056429655 -0.6877670783838981 -1.1626832892501708
C 1.8202832847878885 -0.17442461372166373 -0.8166546047684313
C 1.0323419252707737 -0.7332027316782979 0.08114868564910105
C -0.3005665439475809 -0.11311926468121322 0.37037577838472097
C -1.3602712632939462 -1.0778364844209456 -0.07916334483308751
C -2.5649673238570188 -0.6314914988865902 -0.4019890209367285
C -3.571085813619801 0.17288722229273998 -0.6233548700139334
C -4.458607926310011 0.5031296918431702 0.5037753990273883
H 5.4415332142509545 1.5153096317700734 -0.9018661155984997
H 5.457700541456593 0.464384129340096 0.7132721964368062
H 3.369778997830204 -1.5432783147365945 -1.7215676990743167
H 1.2787762020390974 -1.6261810051235341 0.6390452967961089
H -0.43480347756033294 -0.02164604523417242 1.4735553670988328
H -0.37732583265986125 0.856905342893745 -0.13420617499096732
H -3.7563181335526457 0.5902094886241657 -1.5845115089069497
H -3.8829581683045387 1.1506188629899954 1.211496956200334
H -4.696761095093579 -0.4184203990513752 1.0858637353775504
H -5.365784456243375 1.0458034846590605 0.1879699033426204
