31

C 5.446555156352142 1.0224129293144915 1.6740855093410658
C 4.3499198791307885 1.2527802373613353 1.0155336375366681
C 3.3721301741197927 1.2830738876912748 0.16810382284070685
C 2.3540850264018442 1.3583953757999367 -0.6135732903290763
C 2.0399706354873417 0.2091027142210628 -1.534053300899032
C 0.6867082991657113 0.2933561824405594 -2.0981035181151713
C 0.6441423202244183 0.5340063930763341 -3.4471899680047797
C -0.566825838239857 0.16655854055512156 -1.4411429995908251
C -0.9669902563978022 -0.07022755453656583 -0.23442434385263822
C -0.15321155808689169 -0.30313379987770595 0.9166771357260705
C -0.6973718803818044 -0.518705830828811 2.1142418106783913
C -2.4809238740060016 -0.10048396552579056 -0.03619595155521909
C -2.9392635667890668 -1.4101003006047648 0.4383095171028475
C -4.092021832076281 -1.6171575530188251 1.0110474290212512
C -5.160377498619683 -1.4469508677427994 1.7550089327108274
H 5.437101530845772 0.2771505173606903 2.4627282323694626
H 6.381702685795872 1.527763786437928 1.4896802460441472
H 1.7408386261268312 2.2494509905834486 -0.5945088423838895
H 2.8142533510864984 0.169049783889366 -2.3492977584958896
H 2.1744206250265785 -0.7141814883091955 -0.9748014518909253
H 1.5676849497670489 0.6374498076024411 -3.9625574289261194
H -0.29481725514946877 0.6162955531345605 -3.9718628202875466
H -1.474001564577796 0.3072439095877584 -2.1439169804006726
H 0.9010365012356606 -0.3335234674103484 0.8884883578934658
H -0.07138248424962204 -0.700109735038508 3.0069606799170896
H -1.7546708656200165 -0.5282585103555624 2.3207874155137422
H -2.7202100060788323 0.6984014323655263 0.7253108105340277
H -3.000722963789827 0.19476574405762753 -0.9528996026877916
H -2.3738233180651425 -2.280385661316969 0.3539681001941598
H -5.119832522150346 -1.2363179581775146 2.7958171711402175
H -6.044102476531971 -1.5377210927743035 1.2177794488599645
