20

C 3.698560656515376 -0.6239944914976248 0.22086650127548657
C 2.7967696808593208 0.29277503275005984 -0.08484626800320182
C 1.8645889037047259 1.1659007368897296 -0.3432339369423076
C 0.6154896934125172 0.9772438018939815 0.3706065501716239
C -0.17510425751439992 -0.059476710039759705 0.1859920696573179
C 0.19057466130699713 -1.1198854278619708 -0.7970133578778165
C -1.4117533647906975 -0.15410561257766897 0.9566317663261811
C -2.5265453799957287 0.6440111829068838 0.45159618933614704
C -3.7600978989446667 0.41272521594461603 0.8536991307238312
H 3.6704140043763247 -1.4838403870617072 -0.39369554946349883
H 4.319814053342923 -0.36685176323104146 1.03777909296899
H 2.1180597461682273 1.912892052495401 -1.0410512287544662
H 0.33939741289300585 1.7276041401488182 1.077913579704477
H 0.3947858630777962 -0.7000597355932099 -1.8079172925524603
H 1.0923113995318852 -1.6854546877902004 -0.4864017831922945
H -0.6429770389808555 -1.8391228977866774 -0.9057623855125154
H -1.6702722904250618 -1.1599691646971948 1.2954622137587846
H -2.3372255126977817 1.4320414199952096 -0.2589960304563271
H -3.999257023474562 -0.3707959514879931 1.5685958142347913
H -4.577533308365537 0.9983632466003036 0.48300611685005157
