18

C -3.5746191923596844 1.3215732078464584 -0.5672907653876658
C -2.7720478902321664 0.47057629476676116 0.01329551098281492
C -1.8997004225482181 -0.39460240987331024 0.49170746897171236
C -0.7725530131416528 -0.74912396508222 -0.35583203597269164
C 0.5579961053777738 -0.4454829252695157 0.3362902247587794
C 1.705830735009322 -0.7891477172532996 -0.48626470611887446
C 2.8271266329230493 -0.1368355253913732 -0.23406384155725926
C 3.8846828097270896 0.5570468831016949 0.0854667557706794
H -4.353180974351219 0.8949326502816367 -1.1384623285827693
H -3.33272975682495 2.3464513002428227 -0.3857518887115166
H -2.1342833045257374 -0.7341023128132115 1.4616770288182799
H -0.7596480619362045 -0.2252019943240192 -1.305594144627898
H -0.8319191932631091 -1.8478833478335972 -0.5932765928733543
H 0.5962162854458535 -1.0103830426927556 1.3032179876211567
H 0.5643831769840187 0.642301702438266 0.5390852812264996
H 1.7961716528308707 -1.48960595125816 -1.270554087979337
H 4.5015721412549805 0.11485385849021736 0.8334059261936911
H 3.9967022696296177 1.4746332946234828 -0.4387548719859207
