30

C 4.7495336705419025 -1.325424269918086 -1.1741200100011417
C 4.3829943098758655 -0.07408557382444708 -1.0022357973536655
C 4.0207870259432905 1.1491016329655128 -0.7343159405015961
C 3.5292340395157282 1.410098033499759 0.5723423273521585
C 2.3123905325821252 1.8660176458759279 0.6618474737916815
C 1.0417353901334023 2.2167311311145395 0.6566791344724715
C 0.09022259694969065 1.1594301838945942 0.7018077969933832
C -0.9863230861787694 0.9187297008986308 -0.20790821304345186
C -1.8330477095582691 -0.07378763067400103 -0.11599875481592362
C -1.7933805625309112 -1.1011276221383919 0.9591218122976839
C -2.0212196561572022 -2.489915189743662 0.4027636613628382
C -2.896162403416545 -0.22854597556982148 -1.097692584264791
C -3.8808351639860925 0.6124977931437088 -0.9986594060000517
C -4.846940947689179 1.5001674619404937 -0.8392210855124963
C 0.19891694691428383 0.30713141283643414 1.6754157560796799
C 0.3606918668316327 -0.5041597386607907 2.7066202176400127
H 3.9678561663496605 -1.9596921372909608 -1.533098861973186
H 5.754909031575167 -1.5461894358020423 -0.9391053371352468
H 4.146057045370663 1.821018748785862 -1.5651151549016609
H 4.004539204876635 1.289969687400417 1.519222846250112
H 0.90446163108806 3.2649532921182156 0.6173708466978646
H -2.506507699998112 -0.8728797079699372 1.7802326811627458
H -1.1433732021098082 -2.8016782114586927 -0.1890248568607941
H -2.153291950345936 -3.1899089326691166 1.2442045159670327
H -2.9289173926797534 -2.4695242927464007 -0.26590257581623106
H -2.9718006159823385 -0.9320746146632803 -1.8768880694754975
H -4.70644079116937 2.398181885587585 -1.377946433308507
H -5.6235749330609375 1.1857570865790177 -0.19419858314784608
H -0.16736771505024464 -0.21475562955770158 3.568952531920173
H 0.994854371366537 -1.3160367339532701 2.496520679410083
