24

C 4.6631649898724605 0.7502057700959944 -0.2261233846974231
C 3.677416420465071 0.3497414985786467 -1.008840035246359
C 2.649102631107271 -0.05131794563292847 -1.7152322739879025
C 1.4343727930496524 -0.2944586774035897 -0.9796727999748881
C 0.6078081732172045 0.6065286061117284 -0.40464267435954654
C -0.5145834178222476 -0.12871505510975514 0.2452335342525368
C -1.7279770174669893 0.22224309612189702 0.463593284576411
C -2.7499163122839057 -0.5726500154949646 1.108358910516634
C -3.8549266519109056 0.1381137576582009 1.1418986569259093
C -3.5975657022650998 1.4364042588906174 0.5154355730278171
C -2.3508980510960127 1.4927260083111107 0.11489754480174683
C 0.10922825284456913 -1.4565992248609312 0.620762854595754
C 0.11142571058777788 -2.637214638252071 -0.16672061396443738
C 0.8246533848620818 -1.5806125019181396 -0.7407168196711589
H 5.250957979127055 -0.035202548295454994 0.1652402977440174
H 4.720953680277532 1.7973612696796237 -0.1040431377212559
H 2.8373608142628517 -0.14863176107359113 -2.7482162249087376
H 0.7419029286946757 1.6585770639839945 -0.4203964022308762
H -2.6303447548966914 -1.5783337469264265 1.4972488450019474
H -4.799578341870458 -0.17755913228634915 1.5607717061712696
H -4.318196918403064 2.241430468805791 0.39298179631525654
H -1.8384541187969508 2.308687829882497 -0.3847988005961085
H 0.9158321257737319 -1.3430277148296903 1.4361048391935634
H -0.16173859733078816 -3.66843375904282 -0.36312467576326013
