22

C 4.533574273174323 -0.42731382833592013 -0.9763674699317685
C 3.444066463784593 -0.0012138151367238955 -0.3934775835544472
C 2.2935660500082435 0.3448953480455575 0.15165151735087457
C 1.165766364137687 -0.5375417561399501 -0.08905370287979139
C -0.16365082604617964 0.10721153871512781 0.017510945137429037
C -0.3411845880475193 1.3803623896630708 0.30618136015814
C -1.3526069409917694 -0.7817788628752066 -0.22603696640005944
C -2.2836935990792417 -0.7861505739442067 0.9088427254307316
C -3.4068825683730974 -0.23930323338310452 0.5152125548928479
C -3.3195686125114277 0.16619752673551913 -0.8844898488141589
C -2.128487003077531 -0.1385130245948431 -1.3456212740922486
H 4.683946015442257 -0.07343357613614858 -1.9646179539691018
H 5.131936531531494 -1.0791819251467565 -0.38037196870217255
H 2.3487620057611687 1.243427849210442 0.7062631487932826
H 1.1977046517526662 -1.472594967374589 0.5361583682515884
H 1.2373465544521938 -0.9181580261620532 -1.1497044149224185
H -1.335701638205832 1.784438271149275 0.367815071577992
H 0.48567796031782007 2.0395161409394844 0.4849364459557161
H -2.0807277392557557 -1.1692111899441349 1.8874501308866933
H -4.290453793409921 -0.09756430944680572 1.1264687630821002
H -4.105624886218314 0.6436588947877736 -1.4624546820283157
H -1.7137646751456745 0.012251129374718067 -2.32620705996689
