21

C 3.661560862309258 0.1386200272163662 -0.28056218204151806
C 2.370229923611817 0.09487991669741999 -0.4303789049784933
C 1.112469250049994 -0.18699264249801364 -0.4168802959479169
C 0.420005401400815 -1.4549341420698536 -0.3963297238663017
C -0.8147160378286151 -1.2975848577915987 0.04132252190394528
C -2.1184175644613297 -1.8827990394481584 0.3766695962549327
C -3.0436671358705176 -0.9379857183913385 0.3010849225057068
C -2.3973382968842745 0.3555906410995189 -0.09703224262720171
C -0.9857805582752209 0.13610881550601944 0.38268950771272997
C 0.06666345454534339 0.8057668546765651 -0.4190292389904778
C 0.45916476109452414 2.1629611008461556 0.08927591753185217
H 4.192367270676231 0.1158066219697436 -1.1771251760704229
H 4.129547931170068 0.18997777704493354 0.6481691797871786
H 0.8505610738834081 -2.4170784587889136 -0.6977828334923499
H -2.2371246379902288 -2.9287717099006403 0.6342806111442516
H -4.095908995617443 -1.0843919446897148 0.4969317511392728
H -2.354886244044373 0.3174816696855104 -1.2219530757085388
H -0.8892353584910435 0.2889183295903369 1.4763375283455167
H 1.5333793399492737 2.165399704051597 0.3530132153661232
H 0.30081072949143295 2.9761133233117176 -0.6498306913663676
H -0.1596851687195395 2.4429137318824274 0.987129613398038
