19

C 2.8478603916880254 1.5013249016481611 0.555733354595824
C 2.406131903368264 0.2531652339061022 0.4816714335761743
C 1.8961822151077163 -0.9405883384048613 0.3891471870974504
C 0.5097947460428197 -1.0545854685637919 0.08314972849539333
C -0.08442562103862612 -2.242154173347239 -0.028213652249910143
C -0.3299464169088355 0.14597814573248505 -0.12423958243609992
C -1.7715892934315236 -0.22273951633806682 -0.4379672953045064
C -2.572627343359806 1.041668389462611 -0.6379404447735076
H 3.19886345437559 1.889257980445407 -0.3588838865419965
H 2.780202596025918 1.9224477785633176 1.5231995065247212
H 2.592689499845194 -1.7295188293003319 0.5576011076677109
H -1.1503124785695344 -2.3377240840380975 -0.2633316004174902
H 0.5316546608194983 -3.116819060966136 0.12384394240343362
H 0.054216419781722675 0.7874389900074688 -0.935650684468483
H -0.3644425602449309 0.7847187683204492 0.7923116367292455
H -2.2293696425045426 -0.7525250758144033 0.43254605252570993
H -3.623165939571292 0.8290841382350387 -0.36892320466890444
H -2.5254781897042777 1.3458365831520716 -1.7240275782876593
H -2.166238401721068 1.895733637300032 -0.0600260204671508
