19

C 4.587808883266764 -0.42522209971457553 0.5624459728463728
C 3.5568834607853637 0.13229374010023134 -0.01931952499629758
C 2.4757944106165755 0.6482516470971548 -0.5499589546422978
C 1.2042203718584563 0.21200334333335819 0.015412975338377603
C 0.13304442623921348 1.1023606106632489 -0.4726018793426334
C -1.150702913708652 0.765909941725195 -0.4225208881214751
C -1.4925330271862653 -0.5276993486230491 0.13551992121654244
C -2.7474841692155114 -0.9375351126767424 0.22109416811037846
C -3.906710500574017 -0.13124490451918217 -0.23590421656204924
H 4.9708116573707395 0.10584564154349173 1.3922200594534935
H 4.903347306652578 -1.3370821748761765 0.12594399060401387
H 2.6577783270560484 1.3306425148134555 -1.3378197173621813
H 0.9849708370016029 -0.8249235146277235 -0.3649587866375577
H 1.1958643297239544 0.15167186123090426 1.1246553713271399
H -1.9119473881631492 1.4284649568628287 -0.78283013699571
H -2.9283902002438884 -1.910773062254356 0.6470079309492541
H -3.72873658245841 0.9486237199665709 0.011095332995144558
H -3.9763497034588697 -0.23481924798953888 -1.3479093857538758
H -4.827669525562374 -0.4967685120550259 0.25722620118919215
