34

C 4.833557440689276 1.984420284192692 1.6370489881480563
C 4.572382971134672 0.9183513506399907 0.9439113320999474
C 4.151501494030725 0.03169397568434371 0.0524235435319511
C 2.917619012183435 0.34807553014637366 -0.70978164059422
C 1.6840621689186925 0.26381827126732776 0.16431878830607471
C 1.4859778164413253 -1.0675458296970333 0.7438870463200955
C 0.5217974642231555 -1.9233712494530038 0.4510109625650119
C -0.563213479029259 -1.739139877269327 -0.5137378873597379
C -1.6287385567964172 -0.8181711889558003 -0.10581053971092694
C -1.5840319152225295 -0.13446259975304806 1.0302670545357218
C -2.6727055550231196 0.7638126278730979 1.3795478327309736
C -2.5976778674179624 1.4295847793219247 2.515108892041303
C -3.8285325904626806 0.911806649226791 0.46732827860006293
C -0.15991382846301347 -1.672833781161278 -1.944225727989026
C -1.3452926625994714 -1.476719678610886 -2.8667211283329475
H 4.364594176539376 2.145220262050647 2.58164795964224
H 5.521837747653353 2.703504609631027 1.2518484635045404
H 3.008764305669172 1.401067191983684 -1.0547367012094286
H 2.825841159642732 -0.2715760422349698 -1.624995321915541
H 0.8232805406632105 0.6674103081863549 -0.36319021525241774
H 1.8860436898636281 0.9755668051801809 1.0165418272704039
H 0.5509019760686631 -2.874873917751242 1.0011220874728914
H -2.4936068788686905 -0.6727082360319926 -0.7354338461924174
H -0.7254119698013556 -0.2614517628505806 1.6835560000660663
H -1.7826660142817874 1.353743317818712 3.2039429147510217
H -3.416512754772174 2.1060289828004155 2.779111616394869
H -3.4939703605655272 1.2541903936397683 -0.5524786043937507
H -4.571261815894175 1.6184301825267584 0.8750717107665714
H -4.291206878096372 -0.09607139757183525 0.36376385507378134
H 0.29070402524086336 -2.658405686310416 -2.2192744163910327
H 0.5698433767683249 -0.8655969552304786 -2.179402041249756
H -2.1140455706513746 -2.2240876014318927 -2.5758063452990148
H -1.730752594095033 -0.42495203054021785 -2.8006495286931457
H -1.0091680736037956 -1.6947576874189785 -3.895215209116409
