32

C -6.40507616710537 1.6517231759417677 -0.11991370889373139
C -6.321109846504694 0.37774312799269444 0.21042000969297744
C -6.146714868191839 -0.8760266393092571 0.5669027763804446
C -4.8621015551118045 -1.216276818659062 1.0890727105291054
C -3.717470006651527 -1.0015925305114008 0.49201122186754614
C -3.5457020021293135 -0.37736471278297146 -0.8120319507559671
C -2.2264471483017 -0.3526459064060165 -1.043304615639615
C -1.5112227074695535 -0.9420598496088087 0.06792266663215409
C -0.06459027646305684 -1.0920963298549475 0.17770442629397748
C 0.7173470689177776 -0.6749357537553339 -0.7850703763307291
C 2.1851972432398585 -0.8007137348487428 -0.7279603432817899
C 2.819686082923849 0.003730601626326776 0.30897877370235965
C 4.083838583997439 -0.25571858316268725 0.5513874506967466
C 5.361594006788113 -0.5273033702304151 0.6507546946025691
C 6.227292228860648 0.20853064651342226 -0.21237157946957372
C 6.3912216063067575 1.4795127973846456 0.07157722721818109
C 6.501188873078239 2.745801682481764 0.4250829370786856
C -2.389336373994867 -1.3306471530610924 0.9852509507013569
H -6.126910712612433 1.8616136958130676 -1.1173053852819637
H -6.738124194707496 2.281987522422263 0.6605735795066502
H -6.997693490076973 -1.4847276394859141 0.4182713895129214
H -4.331339235135895 -0.012181983416795989 -1.4536392470291188
H -1.7453598829023527 0.042880975364606 -1.9205349385307193
H 0.39982598712641976 -1.5495824435724554 1.0526178637337205
H 0.2885022534585266 -0.21020423516876324 -1.6797021700175803
H 2.4275771955243717 -1.8670909915985565 -0.543503543329506
H 2.4282078863548437 0.7733928155151897 0.9070983613676702
H 5.57988414808385 -1.2679080402546719 1.3680434456005206
H 6.768367880040389 -0.11632887472150492 -1.062100227786776
H 5.787774149940215 3.385524130364356 -0.020264928274818354
H 7.28741290216015 2.940719796260375 1.104671121330449
H -2.1257196294422798 -1.7977553772710566 1.9073875296169214
