24

C 4.519801605293636 0.2812364148233148 -0.5195780022264619
C 3.2579821079097977 0.6597850616190326 -0.3897196943007668
C 2.003783990895249 0.9874661951990358 -0.20587752659649872
C 1.3160132764433023 0.2871908371523446 0.8765350052713189
C 0.0021384993930705833 -0.2528658001668095 0.504313070745713
C -0.22490712575836105 -1.463860855770515 0.03173097456005483
C -1.6740117585273635 -1.6224114742382498 -0.2191315964686622
C -2.358887897150467 -2.834004581380436 -0.7529083274784653
C -2.304471056475823 -0.510197478630843 0.10318755054748216
C -1.2817194095848254 0.4628441464007968 0.5948008196966519
C -1.341279824657531 1.6688376933798297 -0.24122003240730325
C -0.9711865344648503 2.8689548995847964 0.18694149862950482
H 4.660068214208415 -0.529504868118598 -1.177985229605994
H 5.199720163786917 0.8445260226069621 0.05421457439865294
H 1.6379483357486377 1.7235949090021467 -0.8667888158060626
H 1.2765206703256482 0.962229889745288 1.7628700645550404
H 0.47620079171875834 -2.2516508410596217 -0.16268191749269179
H -3.1689416420870207 -2.490970778561314 -1.4264508798063296
H -1.5797612565995625 -3.4115644903652123 -1.3041245171348195
H -2.772564764000676 -3.446151093808718 0.09074692372012666
H -3.349193700595583 -0.26001174673667504 0.05548119880987751
H -1.7038883607901694 1.5835448673638068 -1.2586769518663288
H -1.0210173784929995 3.74886063257 -0.4417555573820184
H -0.5983469465378362 2.994122439389665 1.2125135167677739
