32

C 4.657399080002592 1.5101199514663879 -0.4462109536833465
C 4.763741197906457 0.2102194585815301 -0.30054476744679826
C 4.7792969262344025 -1.096530242240496 -0.18038342966555984
C 3.533923744840104 -1.7901161821770681 -0.49592729241828765
C 2.3240203606813155 -1.0748969764038039 0.040421816387000375
C 1.239950369380539 -1.076532509447412 -0.6681203771249687
C 0.002478425608944275 -0.39051001784256345 -0.20236634589925356
C -1.06809423556587 -0.42579244687997386 -0.9719006830332415
C -2.3221825131740075 0.2102852896867716 -0.6122695096284035
C -3.531209317677178 -0.7060054358797949 -0.8345008676875736
C -4.546251571149034 0.100891130532502 -0.0009341390137765517
C -3.6814008562167153 0.4329763136383826 1.1848357647613075
C -2.425222130552582 0.49357909700033487 0.8376310971069095
C -1.212293507258228 0.7830833470392409 1.661070175955426
C -0.2794755779180334 1.7804132642548758 1.077222882848664
C 0.03538114625810004 0.28206999135447397 1.0873475651848006
H 4.342891750360927 2.032415106395656 0.42222095996477066
H 4.899471888878459 1.8702530965610196 -1.4163792445875276
H 5.705250026475616 -1.4873340223854679 0.13433426407600707
H 3.5530280687192297 -2.820013361242429 -0.07493121602506367
H 2.4318260052699383 -0.5959268417370718 0.9880974988090476
H 1.2253360050250388 -1.5894163879650576 -1.6279048226631265
H -0.9963356076885996 -0.955545196917239 -1.9109252878996923
H -2.535244425685022 1.1125504769659444 -1.2309629418918024
H -3.821936565949689 -0.7615337149434422 -1.8845572739949026
H -3.373138420687319 -1.6996708904770121 -0.3614222845855033
H -5.416562991925691 -0.5054158622116728 0.27214699709152396
H -4.777192550591179 0.9948277357644256 -0.6064869670848603
H -4.1170987954439315 0.5873077705602822 2.1656773707276753
H 0.3125926537988908 2.3777728802221025 1.8231823167590573
H -0.4871400078086964 2.2594950710031445 0.09309764678534012
H 0.7841914258506494 -0.06301989227655334 1.86826079921566
