21

C 2.8220855092220565 1.7004949666048808 -1.371101021377244
C 2.5009421685693525 0.6980663341992349 -0.5733890790132918
C 2.129939806127795 -0.32591820036013075 0.15894754110336223
C 1.1613573824714392 -1.206029172025555 -0.4383998681748144
C -0.022338728594140798 -1.338506733402604 0.1870495128903635
C -0.32590885691780114 -0.627999158911083 1.4174649977086309
C -1.4491745404237288 0.2763092634335337 1.4021257613438078
C -2.2564103799290582 0.5668772005546755 0.43253514513308056
C -2.2053467620067266 0.015088894400174807 -0.9301130877636917
H 2.2146315379518855 2.5580586053661776 -1.2564037436287003
H 3.639489729872328 1.5023529345421451 -2.0104432678699666
H 2.5926662864800503 -0.37680398491586986 1.1038431812404108
H 1.333023584515216 -1.7502231001774253 -1.3389776342384816
H -0.7490705455045218 -2.0125426705187657 -0.25329618357363215
H -0.5390095819814944 -1.4184448482845278 2.2159483688664605
H 0.6291472421819077 -0.12133326310135147 1.7370089289398736
H -1.6751666849189195 0.8210750932052794 2.367028218469268
H -3.0884046183478238 1.299031765504926 0.5966403257279369
H -2.679143203543814 -0.9942201176094656 -1.0191886660316605
H -2.8330491702980902 0.6678594024006204 -1.6277595898836141
H -1.200260174924899 0.06680678909533919 -1.3637990865375809
