21

C 3.7625939284880547 1.8909414303013319 0.5891260683970476
C 3.3417932317330257 1.051395657797035 -0.3153890980306023
C 2.8689455503957393 0.16219339585609255 -1.1612599932604
C 2.106137733258282 -0.9090527835670148 -0.5945351483966995
C 0.8346693968171756 -0.7164370982031174 -0.32196725571534507
C -0.03548285889312182 -1.7424714790755311 0.2579316659686586
C -1.0753303845398114 -1.222621170499695 1.1442547317184626
C -2.300715481713317 -1.142700431025323 0.6458574058818912
C -3.4578712939141254 -0.8333962051205183 0.12154305127705374
C -3.493391590957396 0.43153800191541414 -0.6450957487627307
C -3.9255395093534244 1.5398484940096764 -0.08704671679890727
H 4.726175052621049 1.6538516761583864 1.0048223364904607
H 3.1171637719680243 2.697132369853301 0.8084729082632797
H 3.1178444828823717 0.35710211038002215 -2.168217825963254
H 2.5673946250878488 -1.8761227652430659 -0.3886043130516285
H 0.6237592955849222 -2.41935085433872 0.87705883087609
H -0.47349123347022687 -2.4041788495795746 -0.5222238118665222
H -0.9483900340877571 -0.9015093896446982 2.142254712275074
H -3.153364676778306 0.406259041458441 -1.6703372048289056
H -4.258267164767321 1.539760490663297 0.9333340234023484
H -3.9446328403616833 2.4378183579042543 -0.6499786178754596
