29

C 1.8178866165874412 1.0830647691640016 2.7938229112040074
C 1.8888828652013245 0.9871381426003589 1.4813015711265596
C 2.0540957063970926 0.5874255515822594 0.2716257189018327
C 3.384266310958105 0.6994855791809091 -0.35892266335241496
C 3.155921655538769 0.0326631511859209 -1.6480014169086101
C 1.9223317044790604 -0.3764379481291492 -1.7892462414929595
C 1.1206178521404995 -0.03370616238162767 -0.5549318778321148
C -0.162305211579 -0.26575479142018743 -0.49193578844725094
C -1.139855110334132 0.07679639020878729 0.5269687772414634
C -1.338048526523516 0.9027838755128054 1.5735278200989424
C -2.6752099480080753 0.6328066133110295 2.156291261893518
C -3.2375883662658063 -0.42073883635150716 1.302496673837327
C -2.335996200812271 -0.7071067223252936 0.3938891311696706
C -2.1423208807290024 -1.548312156390753 -0.8516035630262323
C -2.188422407614952 -0.7188957946504474 -2.0981361945693426
C -0.9120671465175962 -1.102674453017176 -1.4896050794391287
H 1.3863825551919209 2.0252208104714153 3.0827369973452545
H 2.1670760939769473 0.2827012757942458 3.3657883296629145
H 3.6492761147149873 1.7723366262150162 -0.459178381812064
H 4.144500477970209 0.14562979199573206 0.19424223015470438
H 3.947971527445282 -0.09709899420413115 -2.3957649569957886
H 1.5590217997551974 -0.8784199177266081 -2.6635224259909562
H -0.6873299575532549 1.6786076898613733 1.9468784926109834
H -3.3064298831573926 1.5345615834729938 2.162557127967131
H -4.24202883457451 -0.8865248757688697 1.409870306310631
H -2.4714499662288265 -2.58399771907034 -0.8270126538146335
H -2.6267473619040747 0.29439050856244364 -1.9823965471577472
H -2.45899974096099 -1.2660610112443555 -3.0240220253801184
H -0.27343173759431594 -1.8498829764372673 -2.0277175333063084
