26

C 5.579752413615899 -0.08845124946377225 0.049961149598380376
C 4.3381114446874856 -0.30215082759216316 -0.28670099312654745
C 3.065768847522538 -0.47352807627708554 -0.5300437382113422
C 2.1426645125033557 -0.1729358629137394 0.5011691912500325
C 1.0541870908813062 0.4834841518365311 0.1295854363593657
C -0.03639087018089563 1.0247055000736922 -0.3597735391543711
C -1.083965483577566 0.10510880130145743 -0.8003415568396252
C -1.9828539438577912 0.8822743058046912 -1.7775290682386922
C -1.8263956130420889 -0.36404633512922535 0.3484526629208882
C -1.1241512887594611 -1.080478770418245 1.3848784717734282
C -3.0913007867538127 -0.12409053476276727 0.4074866213414174
C -4.333052662546002 0.1894705050999756 0.6021867178758259
H 5.950648196734084 0.8809358282732782 -0.14807832398340995
H 6.073628232562368 -0.932847356663762 0.49145622942880457
H 2.8394193225090154 -0.827269529452101 -1.492085537522776
H 2.1511694046435936 -0.37492290663071653 1.532771938550718
H -0.02438820768584168 2.0749244921219585 -0.37758793371485094
H -0.662319360230455 -0.7163894093544867 -1.4169277554187985
H -2.5947285522558237 0.12636670268692896 -2.3313813432326693
H -2.6980566149840524 1.5245203055481393 -1.2357282539369494
H -1.3438584814689143 1.4665469656185814 -2.45012790300239
H -0.4834873104080814 -1.8881863879636724 0.9606798031156041
H -0.46215824895429786 -0.39894945262603276 1.9720325967859407
H -1.806365248590829 -1.596409349226366 2.0982873652784644
H -4.603330054782249 1.067813016165746 1.087677145979443
H -5.038546737580634 -0.48549452605655535 0.24685950963065384
