14

C 2.6957430338351154 0.3225990754718856 0.06608553137577912
C 1.913576202957144 -0.7173782302779563 0.10812162713030686
C 0.9431273197598187 -1.6131341413324511 0.054174964231679036
C -0.40228976061639565 -1.1068776506527012 0.43827805793977237
C -0.6900459189088548 0.1148921733641939 -0.3936975424125547
C -2.032972539969859 0.7211265648204425 -0.09330009827825231
H 3.1336585871448492 0.746692770843192 0.9464763071898413
H 2.9018380934670827 0.7665906139885339 -0.88642820180429
H -0.32563482146819017 -0.8608573805451483 1.5289609498389354
H -1.1884077941021582 -1.8685686102305095 0.34734879725989615
H 0.1374485754053559 0.8308716733172068 -0.2954954530115564
H -2.787029320042792 0.19280967233129087 -0.6943441956672816
H -2.3161041405984055 0.6736219330731703 0.9631130724189043
H -1.982907516862695 1.7976115358288567 -0.3657543001388842
