25

C 3.3904959165974864 1.6441094396613536 1.1642616207870211
C 3.3087264496175512 0.4601075224957623 0.626605446836611
C 3.1412035922748998 -0.7121937766869102 0.059441285018484696
C 1.8588744395891088 -0.9677950510827991 -0.5206686498711217
C 0.7366205323433767 -0.7787623838120317 0.17210128279943687
C -0.5331372724698494 -1.0687638019199726 -0.5096505584160805
C -1.676102058711531 -0.2945213272782529 0.061401425210424854
C -2.921747040108277 -0.7235793283161497 -0.012301568765437866
C -3.804415009841639 0.23135443442715653 0.623925574400915
C -3.0957117376652987 1.2366617797529689 1.08210223001072
C -1.680251878252809 0.9841907297186295 0.7611562326591825
C -0.37562136945031777 -0.8363102847739883 -1.9543764659215024
C 0.6378902912366233 -1.3447402572670528 -2.568550921684851
C 1.7557182576725394 -1.4498066000853873 -1.9096743177100448
H 3.723071162330413 2.4104496960934787 0.5164753248474829
H 3.1106799235114404 1.6888821588419827 2.18837515449759
H 3.9934183910982295 -1.339025992189069 0.10122362092868639
H 0.8260644397959226 -0.42639007795528927 1.185556391209273
H -3.2587335263668713 -1.6472298490116082 -0.47385314136878315
H -4.8970205156543365 0.18671097828503416 0.740664237150746
H -3.4656106413246937 2.1275658360867142 1.6171100231476856
H -1.1056183673290907 0.9625190737656896 1.7243484269682237
H -1.2242662656438419 1.7949226488515266 0.15676688680861423
H -1.0863891524062623 -0.25476020355705675 -2.498312266715455
H 2.641861439157322 -1.8835953640447207 -2.3341272728278764
