31

C 5.42012506229856 1.0497087197420711 0.5103957377575359
C 4.5037140386750485 0.4427838244127486 -0.18317559202993422
C 3.5365814529374155 -0.21714307541989178 -0.7518364879178426
C 2.467888828127755 -0.8901958732772622 -1.0640908025375868
C 1.2573801047138824 -0.15588350679256055 -1.5162331010862464
C 0.4637650951791985 0.20338080077970294 -0.3295184560454846
C -0.7964698003008345 -0.19322250285656953 -0.10655269082647256
C -1.6960816708209867 -1.0298574697303498 -0.8914124361559234
C -2.922303694223652 -1.2854584106384614 -0.4627491231251972
C -3.8397017581120814 -2.151518211739127 -1.285780704816752
C -3.447360955045865 -0.7619458591808064 0.8009291413262974
C -2.502174749946105 0.07622724059381676 1.5507535372793453
C -1.2799744114158043 0.34291990626301827 1.1395702909869658
C -0.22096543417109746 1.1802118993377386 1.7449451101921127
C 0.2751638640036008 2.3502232484000345 0.9773280827170095
C 0.9213623771324398 1.0093880268291358 0.7968143424968887
H 5.505061001564717 2.1082813627976975 0.44285015528381494
H 6.078522466074055 0.47610772157786335 1.1414838395099935
H 2.456746268550882 -1.9575789196053457 -0.9976095663330625
H 0.704210316043588 -0.840960698812971 -2.197244784102701
H 1.566929901936252 0.7565698136562093 -2.069588773780305
H -1.3750408246966161 -1.4564782570425818 -1.839499508896526
H -4.867434698594815 -1.7785015576618388 -1.2748370162846259
H -3.832772535666175 -3.1502411385283353 -0.8140644109368412
H -3.4541564733013868 -2.2463491935497215 -2.3153606742836557
H -4.408843885180446 -0.22131611669204365 0.677229568266653
H -2.8944073994654294 0.47556172354057585 2.502114477415649
H -0.0706106225796732 1.214412100306478 2.8359190365497513
H -0.33343953138858534 2.777076591206804 0.16859303558496005
H 0.8997065872810744 3.0855850473023403 1.5101197749983293
H 1.8845810803912622 0.7882127647813901 1.3005079987937544
