33

C 6.913635024706136 2.5133768843642095 0.05567306387853337
C 6.316677892862555 1.3911443117510782 0.40855677264818574
C 5.522089758048659 0.39310748803137596 0.6170114054583044
C 4.815328227642415 -0.6852202242260547 0.7470680000694999
C 3.6294838468349955 -0.8837355571455436 -0.09929506182009731
C 2.3783433969344645 -0.9971552727375931 0.633853258940828
C 1.4564415655565028 -0.09734124305075949 0.331886633799963
C 0.5767913902182503 0.7721683832106054 -0.09460017147017195
C -0.24398812517179008 0.3431533885655649 -1.225904440906565
C -1.308057276600643 -0.6184230850869595 -0.7632639251520245
C -1.4978303540525502 -1.8644927446201451 -1.1447809843764445
C -2.6845235687597175 -2.4599617968078378 -0.42345586916004013
C -3.3606497511173155 -1.2531189782682672 0.08986157899872747
C -4.6299885842133675 -1.113439254929233 0.3560037586986623
C -5.149311452285604 0.13066602054016244 0.854331765707357
C -5.109625561092627 1.146510306650483 0.031185520415759258
C -5.03213359738239 2.1159614981080987 -0.8595391480749944
C -2.3202291753245228 -0.22605104442165852 0.24625107950237457
H 6.501414506907427 3.185452949408492 -0.6754953422945815
H 7.853112656071174 2.7225128436885395 0.549269566648458
H 5.082427932737809 -1.4390245626676377 1.4654512573037584
H 3.7483289063656446 -1.6985323281109046 -0.8385586327638529
H 2.0645023604850707 -1.677535673451219 1.374338322852336
H 0.5751830300379638 1.6830301417822282 0.43984798859917934
H -0.6851031596986659 1.2104227671212036 -1.7404837005464833
H 0.4304733152255371 -0.15306025350208133 -1.9701783288644068
H -0.8647075816520429 -2.373073164123097 -1.8863603210854663
H -2.265433175133155 -3.0008280193030354 0.4728559574825934
H -5.295119866614636 -1.939066975271004 0.2005547400457029
H -5.564004111032011 0.348789349862157 1.8001646331976902
H -5.880120158981631 2.202965395353879 -1.483565890486131
H -4.131869057948781 2.6689090128121227 -0.8238694926142632
H -1.841539253572647 -0.34811056352926634 1.2438473246538453
