27

C -0.2577723536333335 3.55384839182751 1.1419316769661163
C 0.43681800855586006 2.719477446818979 0.3884944414281579
C 1.0921042410463841 1.8323612343129894 -0.31074185618576927
C 0.9122894249731696 0.45426527602707395 0.08899626135487126
C -0.2644604116262404 -0.18054708660568417 0.03920806499731979
C -1.5193062480698218 0.42723650348398956 -0.4229305144596451
C -2.6725348640931306 -0.14221528377507162 -0.4921340584262289
C -3.0338621228182823 -1.513865115592928 -0.13867047686500997
C -0.04698519500639962 -1.5553223716157285 0.5313242491966527
C 1.317652735070934 -1.529531574817021 1.2549780143077374
C 2.007845767351145 -0.3887213071053625 0.5862681259822843
C 2.8567615402666577 -0.8084128185337817 -0.5914299825988738
H -1.2328697323877216 3.7505653019446594 0.7880335237025744
H 0.26211272111878214 3.90529142412658 1.99284546307657
H 1.6804988442466762 2.225666996433591 -1.091144380384286
H -1.4592105714956716 1.4852016894679256 -0.7433193328350631
H -3.50918695476762 0.5052444512194767 -0.8747629077291658
H -2.297261198952572 -2.2421807181803275 -0.5159696779380377
H -3.0798159583861326 -1.600798641121334 0.965336228337782
H -4.0610345920217314 -1.7740728045929095 -0.562967519784903
H 0.027631350826892262 -2.281510497234224 -0.3096642379027563
H -0.8121694301360562 -1.896218315288211 1.2535716474109775
H 1.847800919920801 -2.503817236432062 1.1041512764224286
H 2.60284043751451 0.22114153567501582 1.296454306197933
H 3.002834665833006 0.06822936448078985 -1.2581689938933112
H 3.855660556229177 -1.1426437639189417 -0.24665949808246712
H 2.343618420440433 -1.5886720810050279 -1.154860490518581
