20

C 3.868182287397124 1.6792822092436839 -0.1302906119898243
C 3.3716948928797486 0.5129018434368723 0.17294901118646122
C 2.8483872211514445 -0.6712239992778528 0.22431726980325137
C 2.517337946284837 -1.9346986225421867 0.08235217917595712
C 1.125173626211476 -2.305914728544329 -0.22006219202486313
C 0.205311633358608 -2.122593666913791 0.9222301684536578
C -0.9498450216125359 -1.5439279191461077 0.7987867158716744
C -2.003788337882727 -0.8408979016174024 0.4999251198533333
C -2.969209511315434 0.030557427638358805 0.34852674394480676
C -2.784883643222156 1.2938549142089297 -0.3329028530808373
C -3.7752913660687835 2.126384970204631 -0.4576703831226256
H 3.1994542715170344 2.5093267183280124 -0.31245868073596544
H 4.9261583077090645 1.8814992785646354 -0.2148508757000836
H 3.268061552627389 -2.7192804490495996 0.18672355844686297
H 0.7877792302846518 -1.6511430689394144 -1.0661036866174602
H 0.4967748451330058 -2.479157527551479 1.8947663564201678
H -3.922546029063085 -0.24182904081719547 0.761925171145703
H -1.8116862644976655 1.5293325534051647 -0.7337590372366127
H -3.6370676485948055 3.056120040621417 -0.9599254419651632
H -4.759997992297237 1.891406968747742 -0.05369088385583698
