27

C 4.391440203337174 1.1826869061820244 -1.3684279183230894
C 3.2839199685235427 0.5564966854228564 -1.0855010451194214
C 2.191133002891808 -0.07222296197012937 -0.704553023809074
C 2.029353686919598 -0.2846507479463252 0.7260273220321742
C 0.6205525343353392 -0.11635765294795009 1.2195827852625292
C 0.07008221272242038 1.2228415227546139 0.9791802350536756
C -1.193999845085366 1.0934081183816706 0.50655308922918
C -2.1915808212044707 2.076954184509636 0.10539326421061126
C -3.3550131344172254 1.677322737651374 -0.3681132404779659
C -3.6471673628312176 0.259602884264005 -0.48527542165801674
C -2.7545202308831676 -0.6688188436180633 -0.11180149531914003
C -1.5125237674421963 -0.3242783251689697 0.40868586754836633
C -0.3171963601642055 -1.0048361116072544 0.4947032938575339
C -0.1058694341454477 -2.1937463930535164 0.013614435984109717
C 0.39364027962078774 -3.2135039966644037 -0.643161038303611
H 4.316479933686488 2.246260950028118 -1.3930800081761472
H 5.236193743081805 0.5581518000964478 -1.5393732542006109
H 1.5600157385632754 -0.3463704623210931 -1.5089164352988396
H 2.5421423011705584 -1.142750269883134 1.1550301209207494
H 0.5932332885291396 -0.3005891907475124 2.3110824638564043
H 0.520275376953112 2.204239821705158 1.1243267648315742
H -1.949486315904776 3.139252644741917 0.20751151142436836
H -4.098726855047008 2.4340465771225483 -0.6721330990291697
H -4.621644634520162 -0.04744989438701905 -0.8896257450511386
H -3.1427141984165847 -1.6983434459965898 -0.27510128595542477
H 0.34470466124336235 -4.082568874027378 -0.08522681241304073
H 0.7972760284797137 -3.154777662515433 -1.6207257827437054
