35

C 5.679013695617858 1.0823911255145602 0.5896649111129763
C 4.905726112791809 0.7002145425826086 -0.3894462511745291
C 4.072671451501529 0.31566938813620177 -1.3186141113952454
C 2.6945820275312498 0.1433955699054342 -0.9008134391324683
C 2.4159955713626515 -0.584784057505549 0.1410771401777049
C 1.0267249561346317 -0.79697479400358 0.6164117596487868
C 0.8325263345207364 -1.670327107160965 1.8224792348529142
C 0.05067355280072878 -0.22676188714487067 -0.04150656367666874
C -1.3703725142731675 -0.3934333907513694 0.3764091733893512
C -2.3781255737420413 0.1766057628052252 -0.28796021460322885
C -3.660945873225168 -0.11905237798134637 0.2908402365071294
C -4.976269845670214 0.35581961870871676 -0.2057306888422726
C -5.05301618075352 1.1241849642182005 -1.2723347832569216
C -3.460979822081528 -0.8690658494567934 1.3159240059115627
C -1.9838286735834312 -1.111658398687517 1.4730624492875464
C 0.26150383412412237 0.6294249329211863 -1.2405736497471211
C 1.6529107286533984 0.806748270838084 -1.6896588998673054
H 6.127444546294104 0.29740606975502615 1.1474205944991478
H 5.764877707590348 2.1389223545711338 0.7101217275577001
H 4.497446225230981 0.17338769580110008 -2.2707956779067366
H 3.223827808909919 -1.0789022399202008 0.7159173983179765
H 0.37372211368042624 -1.1354208864854507 2.6482200757799723
H 0.39961075025060305 -2.646505300795827 1.5626963647542853
H 1.8771747188692722 -1.9192769264657759 2.227609367820207
H -2.2610273212295473 0.8067659166008316 -1.1823365017168572
H -5.869152926092752 0.07691834559546758 0.2995157309425834
H -4.137110701082137 1.4029029226787497 -1.7802843874666987
H -5.997559621494206 1.4743187901190258 -1.6417309143598375
H -4.238602756293181 -1.2732323155811045 1.9776359543389963
H -1.798001438590778 -2.202924241446033 1.5278342103160962
H -1.7548461423922843 -0.6531524219792858 2.4831488870048934
H -0.34381586773461525 0.1978194554900456 -2.1085711831393077
H -0.19485131266931602 1.6524875936319925 -1.0534517571718836
H 1.750130403516602 0.35191311990416085 -2.7370572488924387
H 1.8719440315272673 1.9114004988583684 -1.805122949870317
