24

C -2.2883848365528303 3.5169868625281255 -0.5968142237381039
C -1.8002488397139385 2.298361141862425 -0.7622621487668012
C -1.3133307319655234 1.0837233356045413 -0.8329509995265612
C -1.0423237252575464 0.41961728660724906 0.43932017113729954
C -2.2041302277513135 -0.10563166917682607 1.13656097135813
C -2.6140687982078754 -1.2992071926162219 0.8077244824151056
C -2.945823254570503 -2.5033696405392583 0.4054771043128904
C 0.06673652589684753 -0.5406979378497305 0.4007585879360893
C 1.2229398466820727 -0.301097121361281 -0.19142190324416627
C 2.3308080000274445 -1.2846223136940587 -0.219150767166696
C 3.5991490490089255 -0.6995456184297637 0.2911279842443309
C 4.570722564386896 -0.31623954440614893 -0.5543550052631642
H -1.5534813317409315 4.273056867295934 -0.5456757125673236
H -3.341845152134905 3.555747586300533 -0.5392945505784572
H -1.174835829464704 0.7294320958130239 -1.8217347610031225
H -2.790044343477795 0.3551660985705177 1.901942576635397
H -3.6309147963677058 -2.5287957680121425 -0.3988355953944285
H -2.4829896751651184 -3.291204554108831 0.9388606255435511
H -0.06361718525042177 -1.5015825149683442 0.8829757477314063
H 1.3582486548152723 0.6773600063423347 -0.6835406651286297
H 2.4360459990367107 -1.63024006664386 -1.271614357206701
H 3.737425740841468 -0.583013852917099 1.351805627887292
H 5.496202001974153 0.1102312160253909 -0.19060127158578252
H 4.427760344951246 -0.4344347022266455 -1.6073773082617921
