15

C 2.9069295824172623 0.43834326965822934 0.7547569539551929
C 2.0197356573838023 0.3626122380937113 -0.20339743239918992
C 1.0391326363019255 0.261921592348959 -1.0681900177504084
C -0.2716218213334366 -0.03673949290951407 -0.5552932908877212
C -0.668438722962461 -1.251176123925781 -0.2060736826884751
C -2.083062507620365 -1.2022924081689592 0.28339877332349844
C -2.4330357861799485 0.22758628039533021 0.15985663188830013
C -1.395055802172489 0.8606588214938344 -0.3147169477813684
H 3.030432182373422 1.4010168352040768 1.1719546233565594
H 3.385788242593032 -0.477956532398301 0.9877747233456514
H 1.3379493830154094 0.41679894062585726 -2.0676472170326496
H -0.05776468475394503 -2.1551906466037036 -0.2650164306018839
H -2.011081406777896 -1.410456435467942 1.3901704018710574
H -3.4177462362865403 0.6312748873715535 0.4367868363696618
H -1.3821607159977396 1.9335987742826468 -0.5043639249682653
