19

C -4.112670006119931 0.1565484426312045 0.9479448794419097
C -3.0507003676710367 0.17123890730539784 0.1801161051935213
C -1.844509960631221 0.03668050258896916 -0.2830242847683676
C -1.62676009091417 -0.3033775472776784 -1.6278564173799974
C -0.29149452573719326 -0.37198623361518834 -1.8187835117145272
C 0.40800594332578544 -0.07034234316843943 -0.5700543869973709
C 1.8506479870071324 -0.0425306786481974 -0.3729220094221661
C 2.2871142559411637 0.2541595975284456 0.840517168564283
C 3.7245502601147993 0.309490559425696 1.1474810850799961
C -0.5476427596402855 0.17391920031215452 0.3464619331443121
H -4.533833392974162 1.0883296626990837 1.0485314475384235
H -4.472885021577954 -0.724050659265434 1.401204637027866
H -2.314364574688894 -0.4937626279101576 -2.4311503546930258
H 0.191104186282694 -0.6109279994213705 -2.744488407579345
H 2.5184912997626587 -0.255375026631546 -1.1852671523573786
H 3.874708195086848 -0.2233581283067668 2.126326694533701
H 4.283523953594155 -0.2540221327405557 0.397211489712669
H 4.011714259032503 1.3774029443056892 1.228768215670026
H -0.3549996401928063 0.42676045099589655 1.3689828690054306
