34

C -3.8805395570259833 3.875453769083696 0.526072895774451
C -2.818834053621018 3.1837230199019286 0.22491204419021996
C -2.044288580816597 2.282827611105935 -0.30843237446997207
C -1.0904898628716657 1.5075948833696027 -0.7424751553163742
C -1.027318494841727 0.12247216966138962 -0.218411872827486
C -0.028363664663391977 -0.7058643820539262 -0.8889789212095908
C 1.231768704489713 -0.6448489345830037 -0.5100442121545246
C 2.2292790135302445 -1.4526759394622266 -1.1582571213731616
C 3.480295494772121 -1.4249031360780828 -0.8183731713298323
C 4.020154735192926 -0.5973484909152398 0.2315691874701523
C 5.328919762939094 -0.6294708354210627 0.5193999990134264
C 5.829948571864971 0.23752682092449487 1.6034358561419562
C -2.3461235126748403 -0.5201985510740293 -0.12365582523040666
C -2.68078372703816 -1.4204025265629137 0.7765520576914119
C -4.060980351975165 -1.8441009951021465 0.5798794173321828
C -4.566821762368555 -1.1999332883954956 -0.4424525935884451
C -3.527270659753842 -0.30497871170486873 -0.9787683835244763
H -4.476470408123501 3.7189339359576064 1.4136890728511702
H -4.187785347320396 4.656587145123664 -0.1530603831288741
H -0.3910319309876654 1.9062670214060378 -1.461643030164031
H -0.29151354588245304 -1.3735294596935699 -1.693448231602897
H 1.5070887049340849 0.0176299498114015 0.2916848053176409
H 1.8953187824795206 -2.1083880232549856 -1.9670045736558328
H 4.183221580978937 -2.064218460771406 -1.3527600481790794
H 3.401429772238052 0.06844407177027638 0.8160601126726521
H 5.986028920830332 -1.2850512895079569 -0.04429453499011164
H 6.910284069377021 0.40955830540516214 1.5651869341753666
H 5.519210188622807 -0.11473611475040467 2.6068033860952062
H 5.332670780643744 1.2409117304756494 1.4602028646312235
H -2.049746267270422 -1.8200924518140063 1.5718016829180486
H -4.579967307350132 -2.581045107385315 1.1925124227184358
H -5.5574196029130585 -1.3045128657935887 -0.8207468427627971
H -3.9071723628179136 0.7340551943049104 -0.8841994346637064
H -3.342698082577389 -0.5656860639775317 -2.041475694703787
