51

C -7.8233882302746345 2.304260879056895 1.2927817905429129
C -7.03691743367993 1.6623338160470258 0.45333086642842696
C -6.3389896071164085 0.9295283672107121 -0.37176239661064453
C -6.835248646577276 -0.3998928020036174 -0.684008354596088
C -5.775256091536845 -1.435432083518493 -0.7216098473325577
C -4.49715140478733 -1.1710869079291968 -0.491380174598437
C -3.460910821384673 -2.1666574201313487 -0.5251092839878895
C -2.2098620539963094 -1.8373508164017964 -0.2869263551856466
C -1.8824353687850597 -0.4181907153127885 0.01819735983286144
C -1.4761799224731191 0.22587934315162672 -1.2347861673056026
C -0.3257665019551366 0.8541921658236895 -1.3320440580190827
C 0.047197963062600386 1.5019726729493244 -2.645603089138993
C 0.5543933183126702 0.9130992272936167 -0.1869862975729643
C 0.2879377111667623 0.372735341513031 0.9773065269509716
C 1.2344199203893047 0.46003966688528225 2.1391402208075867
C 2.5962376801228553 0.019440681946006698 1.6109396968384504
C 2.812532052129019 -1.2767329200134776 1.6220421115805292
C 3.5241406480768322 1.0653858358791162 1.1717514051928621
C 4.8763470866427365 0.6006477508907073 0.8727267792785974
C 5.450039852486073 0.6812703830522437 -0.3456228028075997
C 6.785732642843611 0.14830693084650035 -0.3329112766534894
C 7.709020966752652 0.06686550722999196 -1.4885528968623516
C 7.054378048604875 -0.2618402220661541 0.8988283021371918
C 5.8798334266803645 -0.0011778308228547296 1.7574558455795386
C -0.9751580751739379 -0.34646587760112346 1.170539692733965
H -8.58347771496589 2.8773414935245625 0.830296997229335
H -7.587167084448494 2.1576406257512692 2.313493102183511
H -5.462376890799918 1.4097880761069408 -0.7280731730715946
H -7.585339791277217 -0.7434541036746145 0.04636412694248379
H -7.273222947477293 -0.37218902996171416 -1.7158563260154078
H -6.036354916869184 -2.4575394928619616 -0.9449691797280378
H -4.232281906020513 -0.14596395490174469 -0.2666961698071355
H -3.738492980956765 -3.1935961716954386 -0.7516895858539528
H -1.431651541124122 -2.608358760744208 -0.3165041448844562
H -2.146215397856439 0.18566973595289815 -2.118383160761099
H 0.6324373160728344 0.7634527669905397 -3.199540705447393
H 0.6373284484427408 2.400159355506553 -2.368588262498995
H -0.8856308113895054 1.7604667224589132 -3.1849195662006404
H 0.9227002936384624 -0.17326693032281398 2.967774395543035
H 2.0791382387936737 -1.9659645166368713 1.9803259525473185
H 3.737223607757074 -1.6731967389542357 1.249553030101821
H 3.5468784136039098 1.8425308308549866 2.001213837656165
H 3.117765191443649 1.6595901735946907 0.3052044442715907
H 4.953610638800346 1.0935777115084004 -1.1979497285866167
H 7.151579398607924 -0.14637067638266577 -2.411023040306267
H 8.281682536204633 1.0061133643684705 -1.5727687976617994
H 8.403100746287961 -0.7806291451240918 -1.303851018329316
H 7.98781663803553 -0.7057755691441823 1.1811598883981995
H 5.608312781406277 -0.8927919940027476 2.302062643346125
H -0.7020824127558163 -1.3853757390763677 1.532761981719481
H -1.5702270126842215 0.09160731076179084 2.0328648619802414
