16

C 3.619356188970171 0.7513622481446169 0.02254730049632058
C 2.731282501308827 -0.18643023430031938 -0.22016515214828652
C 1.7884380315866883 -1.0545880790524218 -0.5205776910912727
C 0.6938831764619101 -0.5794975195910236 -1.284795981896456
C -0.2308519454495969 0.09590376328210568 -0.6194202001610835
C -1.1307838130555568 0.6714520957321075 0.1491702649782026
C -2.1333085426009157 -0.21866832652949256 0.719325713730355
C -3.3985496816825798 -0.1814649778396295 -0.0915950592890705
H 3.4462255707397103 1.296058890616748 0.9210440722999902
H 4.382066888309709 0.8409016457069649 -0.7013863961816019
H 1.9826234089671142 -2.0297328050874492 -0.1354075674533312
H 0.46336060279588315 -0.6618518683867358 -2.3120657492256713
H -0.998746520289053 1.7129452163677916 0.24836734444711595
H -3.813264352288099 -1.188396690588693 -0.2984117633482825
H -3.241660390751327 0.29796145599841306 -1.083084386678301
H -4.160071123022985 0.4340451855268692 0.4293442178199324
