20

C 4.809897418749361 -0.02671024762747581 0.22160226722469925
C 3.757704570182158 -0.8079273448233201 0.033413226148825505
C 2.6177325779075447 -1.3535056722738474 -0.3403098127894696
C 1.7887720712138846 -0.7110005599473525 -1.36271953656028
C 0.4308624236467717 -0.35510630234867274 -0.8566748778373913
C 0.1518427773365454 -0.5312661925075401 0.4178250399097587
C -1.1157322145549884 -0.23400063832918863 1.0543410821179735
C -2.110067050498612 0.25683036172953394 0.3440961376264083
C -3.393093367542865 0.5568025964798233 0.9926367694929733
C -4.403148561987972 1.0442182382518423 0.32366027046789886
H 4.715097406540131 0.7116609259175423 0.9724131313925802
H 5.647416800042325 -0.22317649785938656 -0.4076343920425341
H 2.231263131277726 0.1763230755869246 -1.8314638094713311
H 1.6173148851839425 -1.458573385984106 -2.1775532459656555
H -0.2569347115362258 0.03465427622594565 -1.5839859367199827
H -1.244518601231255 -0.41482942484014756 2.1097391858481713
H -2.0283517449763457 0.45310363766755496 -0.7084348846854661
H -3.5130609611595482 0.36859914340440336 2.0682949349731867
H -4.3672788985230495 1.2570191763750362 -0.7328068120145825
H -5.335717950070048 1.2568848349024337 0.8202146201412871
