14

C 3.2863218005548163 0.3138098014201905 -0.19964796144620067
C 2.1779383630837996 -0.2649110865564086 0.16658705468141596
C 1.0960182949331587 -0.8785171886441272 0.4867437653770098
C -0.04623875742094833 -1.0703109540149234 1.1094381586618718
C -1.266075493390579 -1.3065581289277937 0.3679222225725813
C -2.012211438879235 -0.3497223758435774 -0.14950438984052913
C -1.651097764870604 1.0919086227215085 -0.009528848248408345
H 4.106570833398378 -0.2427852867460626 -0.6557240687173741
H 3.470539326999326 1.37523195100618 -0.07914757513493433
H -1.5779953934062836 -2.328119233489887 0.23406702644569308
H -2.9138772703036597 -0.6069849696993328 -0.6928390461799946
H -1.6284184077356212 1.5184463122991394 -1.017450248361122
H -0.6282977548219987 1.1473124267630672 0.4146285335185107
H -2.4131763381405746 1.6012001097120558 0.6021127349990485
