23

C -4.4551715269328 -1.5369999967236807 0.1488115500630776
C -3.2221435959542846 -1.2029577390844883 0.47094468054649036
C -2.007481258017215 -0.7739034987260215 0.7471517734349973
C -1.6724499937638424 0.5340511133221291 0.3166475164064359
C -2.447782980101639 1.7525970377039348 0.38846185175879894
C -0.48566973951803155 0.6626637162737908 -0.224353393571275
C 0.7455658205568668 0.8093827311069104 -0.6563741069726114
C 1.7131013633257037 1.1179658986208016 0.3322851626103023
C 2.554130034478267 0.1469647557620573 0.6428237270996207
C 3.412026381503619 -0.8437764824806185 0.8024237832223152
C 4.563177760492001 -0.838712232537297 -0.08639799509125047
H -4.5467408927403845 -2.0044056470183023 -0.7962402484289981
H -5.17918252013443 -1.2909361098683911 0.8781883155004823
H -1.4218117562064847 -1.4913936555090617 1.2740590134976744
H -2.0822554590065745 2.4354192973064457 1.1904777639771371
H -3.5165968877829132 1.524415910724183 0.6584477263841323
H -2.4529509117184047 2.305005467753264 -0.5734519642822771
H 0.8207656904752941 0.6707620313631033 -1.6976380563896398
H 1.8951550539509232 2.0035981892639265 0.8831325294623829
H 3.129084422004408 -1.5107970483180662 1.5693398497626256
H 5.1020831734781975 0.1378959445714133 -0.012447155781244088
H 5.278242270073999 -1.6625789242698592 0.13974033792066945
H 4.27690555154027 -0.9442607592364374 -1.1541376362395348
