12

C -3.027862048130892 0.8732084890270828 -0.0486601545991596
C -2.2629483033356617 0.27246894945965877 0.8138476143272634
C -1.2231462707702774 -0.19809626929922103 1.4853174486401144
C -0.2772325689503172 -0.9973942160746931 0.7239441600064204
C 0.8718919876014675 -0.5241039490387571 0.35670446407628886
C 2.096608179915544 -0.19189341979289898 0.08648120095234937
C 3.3578129349071317 0.1015385689752566 -0.05504178342360802
H -2.8445116226975755 1.8711678053135368 -0.38654890948663106
H -3.870917139728875 0.33922008607195486 -0.43286134600641085
H -0.5622302956752704 -2.0050273322770615 0.4712701211518635
H 3.653430803396864 0.5745377661752058 -0.9917548498808851
H 4.0891043434678265 -0.11562647854007867 0.7285854440160924
