24

C 4.512758809887144 -2.2934349542149253 0.48276424794048783
C 3.760275240066972 -1.2445065831254098 0.7414939593746331
C 2.950969942446957 -0.22161465664227104 0.9302045074635998
C 1.8304018892281089 -0.13112327052107145 0.05548021777601609
C 1.1827566766097215 0.9709833073940226 -0.26481148336290916
C 1.6481301257966987 2.2440714479124693 0.3297638373611332
C 0.0657393825142722 0.8656706465971336 -1.1712636427843577
C -0.892430990783072 0.03192154459916904 -0.8827318904352535
C -1.970979315501795 -0.5868566900081047 -0.42528906799955235
C -2.8645489176513808 0.17704698872158858 0.48179379761026553
C -4.231627899430533 -0.3876776423137662 0.3365980537164728
C -4.50186401747447 -1.3999381146879302 -0.4884496539460277
H 4.240417086007262 -3.1684302576111514 1.0108391542970545
H 5.28501920029049 -2.115421109784995 -0.21824618268063606
H 3.2464225186117885 0.41153254802525857 1.7238054393463937
H 0.8506019174807954 3.0081090605808742 0.3925257086414457
H 2.538163533345728 2.6193647376175098 -0.22794421108544274
H 1.9948093499621402 2.0213702210303612 1.3613277871118
H -0.013921221557583425 1.4436244477766333 -2.068376317772898
H -2.505241754925894 0.11593429167611355 1.5502978217169976
H -2.8946411535442635 1.2620636375261585 0.23828154239803517
H -5.0615745028971935 0.014815846220711781 0.9074869231789849
H -3.691185459123429 -1.8173798941197203 -1.0675625657636907
H -5.478450439358169 -1.8201255526484221 -0.6070078999098928
