22

C 3.5262468247349155 1.2957558745011477 1.678035607889638
C 3.4958785774902377 0.33526730687030554 0.7753874643179104
C 3.382729228660202 -0.6008533935046776 -0.13751461939041895
C 2.1002536052016834 -0.7179008054357437 -0.7665185030023691
C 1.0165655819263963 -0.6880165950153851 -0.009450397319142307
C -0.33116509307816666 -0.8084029331772514 -0.6441528218750314
C -1.1534959078636715 -1.7215527633531233 0.21321320788132905
C -2.1542030879538125 -2.4202217784563573 -0.2879263973317912
C -1.0145238736379523 0.5108288461978278 -0.742552692344181
C -2.2886367420996634 0.594817160040075 -0.4473934368224744
C -2.984182941497221 1.8984325793858965 -0.539657990009734
H 3.261207570286017 0.9872361948883127 2.654351049852718
H 3.8109662322295614 2.2421181467353173 1.2996232835568136
H 4.266130943225937 -1.16009622066747 -0.29682236698201603
H 1.083817977876885 -0.5775031620867429 1.0677422075204874
H -0.9166989213322072 -1.8044375768407388 1.2611056336241504
H -2.7404587868915673 -3.0730682411967014 0.33023392733334744
H -2.3913354063669847 -2.337897173909119 -1.334686968398608
H -0.41882431325952935 1.3678306941326026 -1.0611175555365122
H -3.5892902349299396 1.985276138593445 -1.4638053954617716
H -2.235783371078396 2.6997793310717113 -0.4208849006817706
H -3.7251978616425565 1.9926083712265965 0.3027873475330223
