22

C 4.245445099089538 1.1071404108177918 0.6407504988737008
C 3.879021541770597 0.14997160080667984 -0.17482095325059646
C 3.3332650983844463 -0.8767579309954951 -0.7976355447173944
C 2.560309059706182 -1.8083628380340473 -0.04626260882920709
C 1.2476155242702394 -1.6941647164359064 -0.15952845944191146
C -0.03782755001119588 -1.4450268128482782 -0.2745400459947986
C -0.5758433739173455 -0.48680969253237055 0.680415909866991
C -2.078320134691322 -0.4167307840195925 0.49149230823033435
C -2.3363370919578568 0.025155081501921646 -0.909210137908504
C -3.0173757536299375 1.1506554575207453 -0.8492893535223205
C -3.2459907739661467 1.5134848411965836 0.5493074769617562
C -2.7097512258050505 0.618246252014309 1.3332805705868656
H 5.130501912156619 0.9754672035266617 1.2284401407447223
H 3.618238360119697 1.979162665436695 0.6677100672283356
H 2.8457905616770485 -2.5901123740686565 0.5999007409500181
H -0.5032859565068047 -1.981282655919921 -1.0540376508341278
H -0.10331297156952972 0.5016407758356586 0.6824314360217849
H -0.4129542004805115 -0.9095985762510386 1.714061973947178
H -1.9860404136447378 -0.5448525449666919 -1.7579207364933715
H -3.3398420965606777 1.6934203802132504 -1.728090985732789
H -3.798810194584394 2.4248346815867623 0.8070697006961333
H -2.7144954198489675 0.6145195756148879 2.3996126060335885
