19

C 3.3266332020879514 0.9948403141876602 -0.5395289380554292
C 2.904295588303777 -0.1129538853200533 -0.012867990736955381
C 2.1893164050387974 -1.0900288662937465 0.5275236911870649
C 0.7401856551966447 -0.8623498866453473 0.7827867409500656
C -0.09067484562944078 -1.043044622108606 -0.4500719351284643
C -1.5423540472658281 -0.7890151588570008 -0.07281628926655426
C -1.7867908198264681 0.5581319743569074 0.45249976714431683
C -2.617619366940999 1.3717325552457265 -0.14366062836466534
H 3.6961687559798717 1.7717032990662778 0.09106775674568442
H 3.2997045306951738 1.1240318607995181 -1.5962438237347392
H 0.6090750485473926 0.17723788823212017 1.1532711814688241
H 0.3884601402667567 -1.536880873800868 1.576076244275338
H -0.0359618341669631 -2.0851289453001804 -0.823239045261005
H 0.2121995857392639 -0.36080086906960795 -1.2601509483543252
H -1.877662587112442 -1.5157739656359281 0.70401671581374
H -2.182837916264229 -0.9752148974158963 -0.9521671778607548
H -1.2759764254149488 0.9147456192170133 1.3622236311236988
H -2.8212161945294048 2.3852621764031636 0.2252280645815853
H -3.134944874705083 1.0735062829385402 -1.0239470165274294
