11

C 2.2996239648036516 0.4252279942050566 0.19378374997427164
C 1.3781492714287635 -0.4098772021202514 -0.268373317530826
C 0.22114325570041551 -0.8739732621442654 -0.6426904027147824
C -1.022359163489407 -0.6154706897717315 0.03628650465288703
C -2.075660700192664 -0.9021380325671093 0.8031810773116153
C -2.0707591823624845 0.4342317321399568 0.293384190052084
H 2.4438723044198705 1.4021800274536471 -0.18651063437258972
H 2.845994544576525 -0.005109904887391182 0.9661667852145205
H 0.29495750479356314 -1.4677984413679739 -1.511404819948728
H -2.580527217479373 0.7330127963035253 -0.643590376785357
H -1.734434582198886 1.2797149827565455 0.9597672441469012
