20

C -2.005758911381801 2.495706585322039 0.22299792744550243
C -2.0252362157536656 1.2449442042595829 -0.1756466703697624
C -2.0487032685961375 -0.02501444102811508 -0.47389197546820466
C -1.8329850060921558 -0.9498935127386927 0.5838306412761997
C -0.9080084722776561 -1.8587518430760095 0.39225368376052805
C 0.11164695426314432 -2.6510439285833853 0.14090731753428837
C 1.4231777271235697 -2.1587001140562925 0.533676986289079
C 1.6547228317647213 -0.7572856409210975 0.17229636631571238
C 1.8507809262738029 0.4001217872146091 -0.10530070095112877
C 2.1076002789932247 1.8045569042891325 -0.4260586019867556
H -2.949045282198575 2.8866037247987313 0.5284431573688121
H -1.0528233213628595 2.950183589002207 0.18866435150980346
H -2.234625676299152 -0.2135288274684181 -1.5172810101392662
H -2.302691875482513 -1.0344657383975546 1.5289145639579815
H -0.1691000235970941 -3.552701552357919 -0.32179179979836875
H 1.5193903184096058 -2.3124056441877103 1.6488187789573838
H 2.2672186719911074 -2.772107937257915 0.10185949240633997
H 1.2099275818573996 2.260388908569445 -0.8971443509753537
H 2.3997049611601224 2.400374624348676 0.46330151217053916
H 2.9848078012050294 1.8430188522691255 -1.1206621569688362
