24

C 3.8910395261294406 -0.2853057191389346 1.0655005778726914
C 3.1914787160417384 -0.17042402456190003 -0.02686701728791266
C 2.433056440781866 -0.1381964999167642 -1.0970571242114193
C 1.3335218409583267 -1.095702320240992 -1.1486674082758423
C 0.10477862845421042 -0.568046720855695 -0.5126208240906114
C -0.22536864658296224 0.690225688079467 -0.7385260113317209
C -1.417445520702637 1.2484589375654898 -0.13792956468079323
C -1.5870042914472684 2.5782282146473294 -0.1418085764979789
C -2.4337149220386145 0.38090805734490435 0.47005213908289933
C -2.1736198485498806 -1.0616130266392274 0.12171305854156221
C -0.7143406168740171 -1.4374772047143047 0.34534517714174195
H 3.5596742702452424 0.31554995480066067 1.8841755882676952
H 4.7129536298784505 -0.9653400720580257 1.0202104240539618
H 2.724365324543765 0.59614838339507 -1.801235078651559
H 1.6531743877534981 -2.043620226608246 -0.6719972580489283
H 0.4046070663614104 1.3048193073372103 -1.379199513126771
H -0.8469322735495841 3.228451721826099 -0.5858685754454634
H -2.458109268399285 3.0380080637907443 0.29334648278181635
H -3.4624176248502936 0.6146662481940778 0.0892693964841473
H -2.436877098591545 0.5272970782281983 1.5565473336865545
H -2.7680623468219787 -1.742764647108268 0.7593535959318416
H -2.3655687758832222 -1.189652156398171 -0.9566578036176764
H -0.6218540283798214 -2.5113564893632407 0.08333875473946051
H -0.4973345684768616 -1.3132625476052224 1.427114122988014
