18

C 4.194706432925774 0.5763059124172832 0.25052856079219044
C 3.3005459169631504 -0.27676504740164315 -0.15257449166170306
C 2.362906079192655 -1.145615401907953 -0.4727926263483543
C 1.2945491923663266 -1.2943388656123094 0.4555615452086598
C 0.10787628224174417 -0.9095853623547709 0.031375140557607095
C -1.0146634934621017 -0.42252609479184045 -0.4374665875463591
C -1.2371692803220449 0.9666739259790276 -0.2042629698054625
C -2.445785341173726 1.4271793119387752 -0.00415497780556307
C -3.6011624742010335 0.5148052328354717 -0.01647884111396875
H 4.991596517685544 0.1807703622485633 0.8396093356432152
H 4.020131157958054 1.586408227978635 -0.06077218630429097
H 2.535258765191483 -1.6277675494981263 -1.4006227282939534
H 1.2849309011114534 -1.6639770612540425 1.4420335759416925
H -1.6100136876083513 -1.1368261620526625 -0.9329206771462812
H -2.5841301676709696 2.473629392922991 0.16831713348191082
H -3.698672200348508 0.09200691110633644 -1.052227872406315
H -4.521289421066335 1.017547416973193 0.31025152092285246
H -3.379615179783122 -0.35792514952692267 0.6316857788431627
