17

C 2.4843986980237376 1.6756185804790906 0.5884909343329533
C 2.6360981130122125 0.6015341486073417 -0.1310917682559101
C 2.6894525822991717 -0.5837297020603913 -0.7136515728765318
C 1.675075765897172 -1.5665622268881438 -0.24878897963494975
C 0.36992724851679837 -1.1650199249269133 -0.8356227259291139
C -0.748480023238267 -1.0894514471844567 -0.13528985646036176
C -1.9540626686556024 -0.6914804486046588 -0.798728395661589
C -2.5852343142307888 0.3377958234301182 -0.2865593708063148
C -3.1576827451783758 1.378611532631163 0.2901886448717492
H 1.772941843346473 2.4124146577782555 0.3112992689030973
H 3.098141448317706 1.7797657268875708 1.4605740323447085
H 1.9340664880446856 -2.5973050306102823 -0.5665052683637668
H 1.5856796771114652 -1.491592842685077 0.8491918154591739
H -0.6883695829264277 -1.3354126927073662 0.9112509853488965
H -2.4223607502963684 -1.1067726163142206 -1.6531042963194058
H -2.837430630700142 2.3130715752326996 -0.0867008095039255
H -3.852161149343487 1.1285148869352697 1.0450473625512988
