29

C 6.175412595610362 3.006917120668879 -0.476400537677014
C 5.045180491835085 2.46786837518465 -0.8609323875412209
C 3.8628624113903194 1.9496460023536393 -1.1427221283103879
C 2.8974145449904496 1.9324699421908478 -0.13117952126211588
C 2.6696728212715213 0.7337207514186105 0.3215229865985885
C 2.4606885235901377 -0.3203876302988532 1.0514714084826147
C 1.4277421792665883 -1.123362600641334 0.5421544543344577
C 0.18702305540761466 -0.7464183807793805 0.28426818691919914
C -0.8578115979926294 -1.6546104402073771 -0.2562328452390394
C -1.9471812909606014 -1.6852863126853177 0.7292554989020071
C -3.1562175624007005 -1.3090865537927245 0.43106995636361956
C -3.5870402187950123 -0.8255144411316845 -0.8613816548248897
C -4.86962156110304 -0.47413899387436936 -1.0148975902163921
C -5.833716156057413 -0.5758032901932617 0.1114706431536972
H 6.873448225727164 2.3173328470834074 -0.05991794501829557
H 6.24929338662809 4.04975438188541 -0.6266071682884337
H 3.8129144195590032 1.5978051408621228 -2.1636872042214246
H 2.4287826695798733 2.8152905283734544 0.20019143937201334
H 2.9754402362390695 -0.5862086954258882 1.9273348922329203
H 1.6452167814916778 -2.1819646454921675 0.325522298189615
H -0.06689509159234872 0.28445228926344734 0.4831050677311309
H -0.3962806608541206 -2.6668058459903667 -0.40714692453580204
H -1.143018995164932 -1.2542389397338116 -1.2441261527820713
H -1.7194199807716049 -2.032332142223916 1.7225539739632896
H -3.927896831662126 -1.3577693124366472 1.2207796581218788
H -2.9796337000891526 -0.7141819826662631 -1.7323314899538274
H -6.0536221529484076 -1.6076715567411413 0.4063188300504419
H -5.40293803913658 0.026763274606252583 0.9608740939886429
H -6.769798503058023 -0.06623888957738346 -0.17697694955890253
