26

C -2.425950075541131 -4.165940324721462 -1.248271727869568
C -1.4684135719300615 -3.316505127830567 -1.0326734831900555
C -0.7783958497779754 -2.2168685772391576 -0.9356634483233053
C -0.49231585487670226 -1.7888170051421954 0.3916910649891645
C -0.20373810603442385 -0.3830578688607582 0.5643897666044805
C 0.9881176323805766 -0.03983927199822395 0.16355125401941167
C 2.2117734110400127 0.30411633452518233 -0.12379367534274453
C 2.5577172098700323 0.7520070978980806 -1.4226271803194632
C 3.880027235498689 1.0135445451529452 -1.351007870593975
C 4.348028234104109 0.7170538926040012 0.025194653897050397
C 3.321098778321644 0.2883375141367436 0.7529045293420196
C -0.9887933801803794 0.6732832387339286 1.0902337415544496
C -1.4445527238317357 1.6553114287779385 0.3421602183650397
C -2.2375408475908336 2.703743412835037 0.9263868966142887
C -2.704467420396071 3.6986866914916443 0.19182047818358244
H -3.4604126032997984 -3.9663183179319623 -1.3158729048178157
H -2.0899746594061392 -5.154627760282235 -1.3622443664117905
H -0.4444933268722671 -1.6633610269780716 -1.779900354006224
H 0.1298669923041069 -2.4381586823202634 1.0226509588080908
H 2.016127526114631 0.901167975822227 -2.341760047119744
H 5.3803110872430215 0.8492493803346369 0.3309851084070176
H 3.3752507600550166 0.00440488321632522 1.7788429112209878
H -1.2276843256101093 0.6824712842050104 2.1421786989942073
H -2.4707756776106304 2.7021085309431943 1.9836461111188497
H -2.477470947130894 3.7147676317590745 -0.8785733886312375
H -3.29333949684228 4.473240120866672 0.6370670785857333
