15

C 3.0673234973977865 -0.23303763383930368 0.3802436139899305
C 2.0446113149328515 -0.13332763122346739 -0.4552919937811758
C 0.9963555048903592 -0.03200473991528113 -1.2135214278390005
C -0.2694881200120018 0.10747230504873455 -0.554223731356803
C -0.8433182223576416 1.154667689938127 0.012900003703193707
C -2.134491381673842 0.7645654578291803 0.5402545643103915
C -2.3683326021912743 -0.5140570207777625 0.3064363334642809
C -1.215065828723453 -1.056186831809254 -0.4073745680050363
H 3.499083436991483 0.690557818814743 0.6416098325330637
H 3.2974590391748833 -1.2239035028147798 0.6606317561724091
H 1.1678335363453978 -0.061240747702695116 -2.253722714354867
H -0.4106957122652495 2.1298619420534064 0.06643313438494755
H -2.871071507825363 1.3832685101748519 1.0704472319359093
H -3.2473511174252643 -1.0804299604959509 0.5834584285778797
H -0.712851837258738 -1.8962056552804816 0.09093473512193223
