27

C 3.8220432860354157 0.842744318364129 1.719468327012757
C 3.4391077746476673 -0.2221165976008923 1.0334247030366335
C 2.969740990993467 -1.2594028767853425 0.40767682865653515
C 1.6527301711401512 -1.7040885303512368 0.7038776118708546
C 1.1255357930902243 -2.771797359991567 0.08214463586291595
C 0.8383592647034972 -1.012301438511983 1.6916718723696968
C -0.1886164106788683 -0.31194588905789333 1.219582384789837
C -1.0344242049895358 0.34313129196974945 0.48014443872852103
C -0.741574118397792 1.6714961653503702 0.08421197809456892
C -0.47661346069161453 2.817317429760897 -0.24069562737320147
C -0.18688333992534573 4.181493551214407 -0.6235869397746332
C -2.2527705982205473 -0.30735907164194803 0.07374786066917051
C -2.2838354619230796 -1.1291934715518814 -0.973076755391911
C -3.5581770959167005 -1.797398039486687 -1.3823285425584133
H 3.6055898111259683 1.7628146391757347 1.253276328833707
H 4.291254467224671 0.6155564017589946 2.642406261163672
H 3.660719274910049 -1.6852012620757857 -0.29610484944066057
H 1.7326879002231406 -3.2811439597073377 -0.6489660923923865
H 0.14413438708551693 -3.103508308735885 0.30273995601320863
H -1.0425637228395026 4.862712298331699 -0.3570488885176462
H 0.7559091666116298 4.48416988721514 -0.12840535476694542
H -0.005422568876580595 4.213415159137411 -1.7348003033470825
H -3.1969715928410203 -0.14173906296282276 0.6204566240901714
H -1.3765304376726635 -1.291461249307328 -1.5028661421893101
H -4.260001685655836 -1.7031147984169397 -0.5304173588773419
H -4.037582194482412 -1.2239394056231054 -2.221619959138791
H -3.395845394524308 -2.8491398205153677 -1.6749129974018007
