19

C 1.0145531315893204 3.5304640985549742 0.01094335676520524
C 0.5730888956845204 2.316869049017666 0.14913328355203986
C 0.26206243683703406 1.0812430708282328 0.34124338646270236
C 0.0018233523135061443 -0.20718814786695566 0.10721079204866028
C 0.7738453205715601 -1.408604028161863 -0.016796039955621955
C 2.0032763369772164 -1.803836062040694 0.03365048778999721
C 3.2605188719246416 -2.022001414495358 0.26641411261418063
C -0.45008209391993875 -2.0733618358991532 -0.23870926011225344
C -1.178301284127605 -0.9860024439227095 -0.12921337850891373
C -2.6134502800605035 -0.6498337546692662 -0.20768633607415588
C -3.0300702123754366 0.5940614855105587 -0.04379085358414827
H 0.789953231774218 4.048614128734796 -0.9089376555584863
H 1.5942980524042893 4.055922921583722 0.7609478685732214
H 3.633908380025287 -2.255674881823841 1.226987573614172
H 3.907053783571835 -1.9527374715656314 -0.5663323564922701
H -0.8282514199732863 -3.104090184685992 -0.4416871403602629
H -3.3683175820965294 -1.4004388891370845 -0.40000908973305965
H -2.286390814417048 1.3514194499507526 0.14858248927663464
H -4.059518106703093 0.8851749100878802 -0.09195124031767733
