30

C -4.153721404755978 -2.717246769263655 -1.0066507410628127
C -3.422726751270072 -1.7799724622246738 -1.5718426964882724
C -2.664085207077442 -0.8690602204760738 -2.076743792693438
C -1.4386406604940674 -0.5691548199267435 -1.3120491604430786
C -1.3586411663942697 0.5410772971042287 -0.6408914618525658
C -0.3616091878491119 1.1121309238465442 0.1675566450165384
C 0.9287926138330889 0.5866461948808185 0.4935913589697166
C 1.5136707482838951 -0.5142032613313408 0.15003399713974436
C 2.8985704817384472 -0.7585561521145543 0.6819824729864169
C 3.559912199801446 -1.8538515185415925 0.3786154981157295
C 4.916255597253925 -2.086826892559966 0.9032038735298057
C -0.6159182219105382 2.3282454008547235 0.73699488559851
C -1.8100233411155848 3.0856997681088862 0.58974490681245
C -1.9081642110030863 4.284566078431473 1.2250523669797704
H -4.876129949891964 -2.359562003350617 -0.3172288845621621
H -3.9238364713725216 -3.705007911166424 -1.3141115348368326
H -2.9754985900139514 -0.42450018551180624 -2.9735659337897387
H -0.6881599363328036 -1.3150423973704886 -1.373211756899188
H -2.3061843519496823 1.1528391100063358 -0.751602036723977
H 1.5595522970427111 1.2358041111722615 1.1689783667441196
H 1.155806007175564 -1.3074705354154599 -0.4751511193508987
H 3.351554149485505 -0.030160951957095537 1.3163883183731473
H 3.141175786491868 -2.6274461979969295 -0.2649359374969965
H 4.865602850688392 -2.666704390793691 1.8475003351755745
H 5.448738826712678 -1.1382212193835142 1.1597454947447823
H 5.522418456367446 -2.6658861676995613 0.16110296121472767
H 0.18915802811000523 2.7596603388355345 1.3728790378736482
H -2.6408730948151984 2.7706547560371346 0.007630271664102596
H -1.1041121875203714 4.651160411070147 1.823528496252909
H -2.8028833092198493 4.880389666736961 1.1308268423334178
