30

C 4.64384816525284 -1.7687299223588497 -0.0925660810024134
C 3.693584139758993 -0.8734902766200612 0.09453189081684993
C 2.697800639225015 -0.03595801558852118 0.26628662713201423
C 1.3609708546531973 -0.6018293917487255 0.11998931513505641
C 0.3393028948577392 0.33746650162259795 0.6748503382567418
C -1.0119281445626038 -0.2333762903210983 0.526450920991815
C -1.3684155880880773 -1.4938521185574622 0.373860475313984
C -2.7624862801606516 -1.8629615165303821 0.24322691305066213
C -3.1075767686249343 -3.132630168774205 0.09044438288529004
C -1.94777187883596 0.9259516786997918 0.5824177458230066
C -1.1057853478076547 2.130999888292134 0.3598631429736303
C -1.4507961450906768 3.3871294611046356 0.5405216452379888
C 0.23084188316386567 1.619749902746883 -0.11720774329350103
C 0.15964908760882085 1.3856354360224388 -1.5941687130515076
H 4.9728725082852465 -1.85720792696748 -1.0928961038815665
H 4.94503930088597 -2.2761402895327976 0.7874427608442337
H 2.9951551744159977 0.9533347866054755 0.4913523044868029
H 1.2807440225189828 -1.5541913725506487 0.7008567453957696
H 0.5640853621042078 0.6129061946283448 1.726136563045534
H -0.6012616038655372 -2.253787150928854 0.34730693681484587
H -3.5261407474682143 -1.1030915304511166 0.2700490985273436
H -2.361868765802577 -3.9123452487424806 0.06043400126741891
H -4.141733195862923 -3.423310692184115 -0.008193226517840697
H -2.706906413645541 0.8242761644023051 -0.21068678812398692
H -0.7930716972142343 4.219606953230974 0.36109941779864
H -2.449940237825542 3.613983677891458 0.8893480220923765
H 1.0335150741799979 2.2953672457975927 0.1786223202720116
H 0.8642389748043772 0.6218906997841923 -1.9602290934181257
H 0.40061972414648916 2.359345258839815 -2.0972929442900305
H -0.8465849910063025 1.0952580621882797 -1.9294021717353063
