40

C -5.079343311738005 3.2723117934424053 1.0599928778717345
C -4.746959725750862 2.00633186928968 1.192306698253933
C -4.35939810523295 0.7475722708686047 1.2395064875495254
C -3.470505699670933 0.30334259671359104 0.1742634536145428
C -2.054174075960028 0.6625956374855594 0.40508999207435215
C -1.2963890803285845 -0.25723393993548865 -0.15149400782664105
C 0.15538352658953009 -0.28373667425157134 -0.1570414461925016
C 0.8709047504820752 -1.2999603156293058 -0.7730314521461269
C 2.2461230957136586 -1.2512895697459416 -0.7331632737394707
C 2.9575745256856116 -0.24681347471289514 -0.11386457031415824
C 2.228520384011418 0.7721225207278892 0.5036837537969021
C 0.8484948319322692 0.7309095044010923 0.4683427634279077
C 3.1914899893712874 1.6928657099007758 1.073655891850193
C 4.4368513576902355 1.2936672469035264 0.8387747162620611
C 4.361886948851491 0.0554601885678892 0.08125869512268118
C 5.402279183235298 -0.6333983876632108 -0.3322468097505076
C 6.770894908224016 -0.24198807367136013 -0.08288910870807296
C 7.77131765716016 -0.9674381586452475 -0.5190700946112742
C -2.131539000474133 -1.3214015335842533 -0.800421686424421
C -3.4389893175374926 -1.1880893211796102 0.006008614352153753
C -4.580917424310857 -1.7200580517207413 -0.7853802582178802
C -4.38546013384606 -2.386044037933107 -1.8953396832254543
H -5.95177156656681 3.4394849577810906 0.4862150323079938
H -4.42610352874926 3.949335945755248 1.546122455525744
H -4.752190488545851 0.2139201826756034 2.060909511364369
H -3.848560409988414 0.7537471454347404 -0.7866182166843871
H -1.7379424056692987 1.558919966081428 0.9557289165786056
H 0.30810653736448435 -2.083506740651126 -1.256172574095611
H 2.8257094232198186 -2.0330531226725688 -1.2068285396420504
H 0.2853127042321783 1.535663331116569 0.9561732878327911
H 2.9380803458052207 2.59364856085524 1.6224888593999198
H 5.321226430200756 1.8437141374826895 1.1815517735518017
H 6.973191633278735 0.6559062920379295 0.46757574831353066
H 7.57003939337913 -1.8712470199557711 -1.073127045011494
H 8.810541755968085 -0.7263816921490746 -0.3640534176632657
H -2.3973439706376642 -0.9180525550308134 -1.8140120925521448
H -3.3578947505344003 -1.7306073510605628 0.9567731426191716
H -5.6074679999739985 -1.55317334671975 -0.43650773563708717
H -5.242010374757216 -2.7720542742953276 -2.4679989837190317
H -3.408968012122487 -2.5959922163140274 -2.3078189713730155
