17

C -3.8426383859134328 0.811086998396957 0.03381025747519937
C -2.650161568257828 0.45456954608663697 0.4513055693057826
C -1.4622136108389578 0.041388362907701974 0.8146098278953771
C -0.9223078288230957 -1.0638001797586312 0.07299506841111973
C 0.3284856253958497 -1.0231154001468703 -0.3141354115938752
C 1.1772109644512658 0.13539487831030625 0.0018593211846824876
C 2.6154574927068737 -0.23434013849689364 -0.013896085700475591
C 3.478137070590031 0.5669454226175329 0.5743716238076999
H -3.8397003709413844 1.5441992790700338 -0.7280927327664225
H -4.64398350667336 0.31846145725041314 0.5131885398685792
H -1.036364010505121 0.5780942751161984 1.621720434667875
H -1.5835054122294971 -1.9056583568395247 -0.14212994499299889
H 0.7389109576643995 -1.8419798903678835 -0.8670021842564103
H 1.03192178688213 0.9906082175591382 -0.7007089802828046
H 2.9002234867051335 -1.145830217991947 -0.506779537870946
H 3.180559146065826 1.4667885748861977 1.058672196765059
H 4.529968163721565 0.3071871714006209 0.5690499671888595
