22

C 6.133519095055121 1.0475578917297708 -0.17429925284590214
C 4.928290818054588 0.5561692906086112 0.05666071106173218
C 3.7154579454578216 0.11369385090005846 0.21681356614429403
C 2.6960137626316136 0.6820259423726842 -0.689706538224022
C 2.0601050349900265 -0.393495166115355 -1.4263450961283222
C 0.9546979533480199 -0.8877530316734727 -0.8995682145388523
C -0.18136817995765592 -1.2362036413889221 -0.34003969952777136
C -1.3313053980990641 -0.4975123439148041 -0.75099788787506
C -2.5651507311542963 -0.7785297114212559 -0.43982660789307554
C -3.6904546062374366 -0.6362673722585638 0.19142536498438376
C -4.890663459702159 -0.5486418631990382 0.6610276859505823
C -5.7118795428313245 0.6935240305765988 0.5972332511034119
H 6.360359546349823 1.9171136084530853 0.3860864132990998
H 6.7010303136125176 0.508163150130511 -0.8831031800958379
H 3.59301521543827 -0.6039289458935286 0.97813533561564
H 1.9520276665741014 1.310255886842246 -0.1619723381341278
H 2.325385145148249 -0.8636108315525887 -2.328731548628894
H -0.07945679989909855 -2.029203549338425 0.34967809562459223
H -5.351454416521362 -1.4047227215294649 1.1311377420039408
H -6.152505380184657 0.963635854504427 1.5658109124201665
H -6.460686865530981 0.5764476046737319 -0.21882073314901135
H -5.004977116541914 1.5112820674936553 0.2878072271490707
