18

C 3.73885141988767 -0.3421891457380327 -0.7888381973597305
C 2.554759197093982 -0.6093155596252603 -0.3049990312699065
C 1.3759955815693032 -0.7980498258874207 0.20740915510730923
C 0.8123328922797892 0.279950976688642 0.9557961163644343
C -0.46543691456158093 0.5837902501203412 0.801977856820598
C -1.308270290400817 -0.18191537413385495 -0.13488570611640668
C -2.822153230005236 0.09851493275037815 -0.08078875955467951
C -1.9696330999670586 0.5133249249233626 -1.2698679742598582
H 4.551415564626745 -0.5955512856751478 -0.15247078531983707
H 3.745607868520406 0.09395255956277183 -1.753104469185051
H 0.9557168460739347 -1.759157390123425 0.004988448577049092
H 1.376056863411334 0.8786789397594253 1.6572669384591916
H -0.9400724469726495 1.3984393295899062 1.351123036852379
H -1.0220063503472756 -1.2504457315682507 -0.21146898285123425
H -3.1558046504167825 0.9211450093258297 0.5581279041585581
H -3.4924070638662865 -0.7701014329686608 -0.2148303197484999
H -2.1848202278605906 -0.051342984026796434 -2.209385033404315
H -1.75013195906513 1.5902718070261468 -1.404406122565856
