26

C -3.4834834938856347 3.814480843544768 0.42203825900863734
C -3.105156493725528 2.617981424628389 0.06951333685378197
C -2.763837692517938 1.404499959847021 -0.16968199722132826
C -2.227157453102055 0.23839815105592113 -0.45588741086802653
C -1.234821158952233 -0.34718900520504264 0.509900895844172
C 0.10999826874748926 -0.26051387802889003 -0.1361333228414754
C 1.2097179178729838 -0.7869647692814988 0.6621224178554783
C 2.396193474104994 -0.7456005718888069 0.09995816417305439
C 3.55414795346573 -0.5845819614010811 -0.5101383588483273
C 4.214452812678618 0.6933260003147508 -0.2688541369367101
C -1.6533674325743664 -1.8089797005551649 0.6785756227998155
C -1.6181005411943208 -2.5458519077364987 -0.628094029996393
C -0.7887574629031311 -2.8937329999505623 0.4285858018986287
H -3.092947747755967 4.333858239164751 1.2918981159301033
H -4.223485972068999 4.338484614014738 -0.16566568496099457
H -1.2870680935247591 0.1830199327105278 1.471401871505152
H 0.040354117362001764 -0.7306212367860095 -1.1461238154777558
H 0.3121554489934674 0.8244107106696107 -0.3353481707694497
H 1.2182951249964817 -1.202415288101609 1.6328902898378197
H 3.842657863524758 -1.4109295466975076 -1.094242693231537
H 4.45252843144052 0.7848041222732838 0.820372014287273
H 3.5583042913457708 1.5507484639907856 -0.5906395359899052
H 5.144622202373181 0.7970380010217069 -0.8936895353100008
H -2.666523888550681 -1.884212849694936 1.156273414230172
H -1.9105006978885546 -2.7659787794485657 -1.64227036827842
H 0.0017802217381613105 -3.6134779684601246 0.7092974135360643
