22

C 4.949386199156016 0.5349610066469825 0.7110134982561132
C 3.8821685603772806 0.07126818214641206 0.09832325213206622
C 2.7582833262978785 -0.3410075693764845 -0.4260631002722297
C 1.5158125419674533 -0.010172869195877217 0.26566543977040213
C 0.7093601073712298 -1.2002595384099868 0.5747178431894755
C -0.49908134362665596 -1.3281206423416059 0.09824289159629095
C -1.0298549078904966 -0.28433410554799854 -0.7353502306109879
C -2.1676929723716336 0.2153039869162412 -0.32559391739486926
C -3.3577738099012566 0.6101799624127934 0.07179989532537387
C -4.489450947667305 -0.14242766379169391 -0.45157512915518133
H 5.36590662659018 -0.12857256264927588 1.4195275311384672
H 5.237573599741306 1.5045820920529749 0.40916823675700126
H 2.872082341460054 -0.8864974893820605 -1.3220876135042154
H 1.70293912787825 0.5843073169825749 1.17910712580233
H 0.9041698500382097 0.6522535221255079 -0.40921557693440974
H 1.1118741090311686 -1.973093414501304 1.1962289910551378
H -1.0931357182960566 -2.2285364402968186 0.3393831752781775
H -0.6572647695052763 0.14339420305648987 -1.6194259857818745
H -3.326764565325066 1.4325282799932728 0.7283477765951099
H -4.354280224665545 -1.2559463909826152 -0.3475665266071385
H -5.435804704986107 0.08836013132695414 0.0825763391718982
H -4.598452425673577 0.11764758666687433 -1.5372239158069152
