25

C -5.465831377083935 1.2548927243937937 -0.4475984191879333
C -4.773641648213987 0.1653156254933487 -0.30563598205496395
C -4.364941555046022 -1.0349937214394354 -0.041518849784256004
C -3.5382527917996045 -1.1693334589946591 1.1185547965429548
C -2.453101543467083 -0.4119479429112964 1.2131931592521557
C -1.4857673867163286 0.43765235384764095 1.018115394858355
C -0.33974117752737526 0.06830501588081885 0.21742135099004187
C 0.18505314581042134 -1.1465009930606849 0.21578939686211243
C 1.3509149745337505 -1.4440003087312714 -0.6260776395795535
C 2.570326803663119 -1.1388949271346671 0.15727480897875368
C 3.296467975877347 -0.09429989831773761 -0.14688803131719966
C 4.508640838160495 0.27520940671345173 0.5726837289830694
C 5.237573137929037 1.3238457449241394 0.26732879638691726
H -5.006614075856827 1.9708442580847554 -1.066052426545072
H -6.401728591159912 1.4587507140225247 -0.010328291798791552
H -4.599681265407009 -1.886900401119511 -0.611071958753252
H -1.548431253958925 1.410907962063608 1.451482059853264
H 0.09155966047334778 0.8443530476860264 -0.4033314461673533
H -0.2833400177048389 -1.9031967387697553 0.8598697396281125
H 1.3113418275657278 -0.9106279370525758 -1.5937256070861434
H 2.8291241575298005 -1.80000342216625 0.971768442652128
H 2.987749942819129 0.5315457327529652 -0.9731359908597559
H 4.8213812126335815 -0.3450941657897956 1.3974393504421123
H 4.948505941403015 1.9649739677666322 -0.555534314229427
H 6.122433065540617 1.579197361857423 0.805450178459015
