31

C -4.1074944701515745 -1.8520410859757193 1.5655401125965531
C -3.8020870655239714 -2.542122894634092 0.4872634904654455
C -3.397014874422412 -3.1985329904495234 -0.5629699207153434
C -2.0134473837735123 -3.20436088794699 -0.8492766180687248
C -1.3854664292373204 -2.0448870027188435 -1.0090510857179356
C -0.7100414433043466 -0.9957473919067034 -0.5747299432965736
C -0.6490825203462565 0.33488504683639797 -0.05836106386954825
C -1.3688334048576394 1.542388210106516 0.3725917950157517
C -0.6669485324437348 2.5750294493900543 0.8043623032879734
C -1.3490956964268779 3.783427843018267 1.2376411021013571
C -0.66556310526428 4.822804753254758 1.67019847688556
C 0.4647701281917873 -0.3269235174489898 -0.25977703094861215
C 1.9298389815201462 -0.3159306154930553 -0.18450473469433884
C 2.6616848440304453 -1.3526649843953045 -0.5492413108596345
C 4.081550607026656 -1.3191303055139647 -0.4674035204966958
C 4.723585959299486 -0.6356522937669161 -1.3788380444988029
C 5.2657692082674075 0.08190081975622474 -2.3404147579733983
H -4.317355149749869 -0.8297082143298379 1.389775154435053
H -4.101468028285966 -2.4117294613358213 2.463429123925955
H -4.198118267909978 -3.672486547677897 -1.1017570850668867
H -1.4544265965664152 -4.108472416682936 -0.9382630561480653
H -2.446431067488042 1.5908445961343158 0.33958997923202733
H 0.4194418063299321 2.536912589923968 0.8416741485050542
H -2.430122577655905 3.838111381293077 1.2076318864665903
H 0.42519538505703025 4.767536512228966 1.7000643793906565
H -1.0978298131897808 5.73591831348101 2.0036144285998554
H 2.414413145897428 0.5735279833568148 0.18275288048338234
H 2.1556120730414854 -2.233289797943693 -0.9138017510430163
H 4.725785875723288 -1.7810796020651534 0.2471546180535823
H 5.497123529031667 -0.46458763519866 -3.2177611564906976
H 5.396054883177886 1.106060146696093 -2.1071327995592766
