14

C -3.2092979669282804 0.08473853631049262 0.24345187028044557
C -1.922012235129216 0.20063832801525266 0.2934531665871636
C -0.6014598803939126 0.28644957313586533 0.23752987424838415
C 0.045845933667605136 -0.44764912858991307 -0.8320716751186668
C 1.511084851572858 -0.6692231597399179 -0.6924417856987093
C 2.330373564358664 0.5611957536818193 -0.6098408975251446
C 2.2807985635768913 -0.39951093429879253 0.46501234745135184
H -3.624398411349643 -0.7203386028152899 0.7894035484570011
H -3.7461021199534863 0.7938150871889513 -0.3335989998792662
H -0.19740848592129162 0.8921286138541303 0.9984312594971123
H -0.23208868718868 -0.0250066039747778 -1.8176536511288819
H 1.896994416222502 -1.4800922221841375 -1.3802883260167247
H 2.79004829620231 1.5062505463406304 -0.8738273667487841
H 2.6776221612637854 -0.5833957869243803 1.455210583003126
