17

C 3.5846336691159792 0.36227851406125666 0.5235163153573957
C 2.2769544488681315 0.3559027507502453 0.6551347701343339
C 0.9611467552072162 0.31262771185357496 0.6555031336088716
C 0.30451182731967785 -0.10257708415119293 -0.5809602203666692
C -0.6511653180797132 -1.2635350014475046 -0.5572423614893294
C -1.1945729323092096 0.15306873474865862 -0.7370164849461062
C -1.8830065714389776 0.7565218640346911 0.4159530896927416
C -2.9582920486375777 0.18382358658447626 0.9345616587451753
H 3.992228263758747 1.2766075689008454 0.1880882407221997
H 4.053053150302766 -0.5593925645842373 0.773570821994165
H 0.5363710344851351 0.5926571291897705 1.579303176086143
H 0.8501176164964742 0.03218954524903159 -1.525994273527836
H -0.7610811130801299 -1.74940341588526 0.4333963638196334
H -0.7470461270010352 -1.884827013045801 -1.4574919569908515
H -1.515665156804406 1.6745284546992654 0.850078447712237
H -3.4884949204653686 0.6000207078075874 1.7814515117405745
H -3.359692577737806 -0.7404914887655104 0.5268568898162923
