7

C 1.3166675843794258 0.013770681075732557 0.012375074391540975
C -0.002857077576757591 -0.020993100471457683 -0.031269192812084554
C -1.2994898270041326 -0.013278232899597316 -0.010583485260872763
H 1.7697624472711664 -0.6714684020019629 -0.6486146027994352
H 1.7469259722833816 0.7084096638097147 0.6891354707050164
H -1.7654935243816425 -0.677587094748786 0.6848892643886658
H -1.7655155749714384 0.6611464852363571 -0.695932528612833
