25

C 4.228642753759932 -0.5741051836257468 -0.711107131335348
C 3.0071288434514836 -0.1325794917211596 -0.8588980880028281
C 1.7766271703479282 0.3042622180545735 -0.9088515657139955
C 0.987037344628847 0.17412151022655967 0.33979657255804063
C 1.0841605108354717 -1.1708368633895536 0.9249907754937409
C -0.36522776286172826 0.7277175136230633 0.03589397123444197
C -1.5669396074371484 0.23412150272987017 0.19071057298010796
C -1.9675808512888335 -1.0673884232371544 0.7324497470065888
C -3.2478568061024102 -1.3778880781749125 0.8045716432406158
C -2.5455356429834537 1.241353007454681 -0.2906204858484445
C -1.921845815847929 2.308037406388475 -0.720337748425181
C -0.49771272604173344 2.109549572230332 -0.5661347220417342
H 4.938512754153882 0.13615978436979878 -0.3841142265216225
H 4.349599806502711 -1.6142693944616087 -0.9438385716534936
H 1.476711214325703 0.7023544614889125 -1.8310192794998408
H 1.4152703605145243 0.8970514765693618 1.0794597824808407
H 0.7893826110555268 -2.0192786196055845 0.28519620089468817
H 2.231717260986055 -1.332874888186691 1.0598288981425639
H 0.6827281105617036 -1.1916598947606156 1.9637206070026718
H -1.2837950107621672 -1.7995861118332535 1.0809772767841637
H -3.997116283177975 -0.6845229312789848 0.4695518997874661
H -3.579083144069756 -2.3306484136270518 1.1993123071239047
H -3.632113624612191 1.1086652492898734 -0.2858060621753618
H -2.4282340680034453 3.202209591226831 -1.1301555601925866
H 0.0655226020645026 2.1500350002506248 -1.5355768133193939
