19

C -3.5891850147202184 1.5567180326886898 0.3072749407713625
C -3.1693154836151836 0.3274706389875511 0.16435337977316686
C -2.6589749692186913 -0.881079834056556 0.04954073516819578
C -1.296760241423221 -1.0566692860859774 0.535958362395945
C -0.27526329275998274 -0.9251260422014401 -0.5324898316923125
C 0.9402530434296787 -0.4991826033386715 -0.2655720646194801
C 1.9486312490426498 -0.3655855998430459 -1.2989182629670202
C 3.1698295790538644 0.061660978966995426 -1.034711351450707
C 3.5049248823120602 0.4099571452677616 0.3570343738820332
H -3.3962228673851684 2.20250844233755 -0.5055026676982498
H -4.078174159964396 1.7508093557858864 1.2401020222035293
H -3.315131474346841 -1.57924522725537 -0.38821804430485074
H -1.033875118326791 -0.41166291000949684 1.3721213517085036
H -0.5601758367682805 -1.1900796282278991 -1.5378521684744786
H 1.2136349764603174 -0.2353596574690401 0.7538461097198345
H 1.7293588195576886 -0.6144173290708766 -2.3290741232511913
H 3.585887536814305 -0.5430125975691594 0.9562447241363188
H 4.524903728263939 0.8923203940339108 0.3473559737641504
H 2.755654643594157 1.0999757270591226 0.806403320261926
