29

C 7.048218716732936 1.5477320010199702 -0.13573807137740965
C 5.998315872195629 0.812154560562921 0.12133169483130067
C 5.010402178560169 0.07645086103351666 0.5323198344852225
C 4.011959802888808 -0.7336569726730215 0.4526859115520965
C 2.911541963580141 -1.403650976583878 0.3482966753217117
C 1.9076757154963093 -2.188563306243505 0.029438205309411353
C 0.642169845878318 -1.5726474669001396 -0.37048529870231206
C 0.46641703107698385 -1.1595462877727547 -1.7748731426397253
C -0.347446483021614 -1.3790654622790235 0.5025879822264843
C -1.5993368003729207 -0.7678117018961879 0.09842758969569608
C -2.5443126066151596 -0.6009343452437172 1.0068356291545004
C -3.835437447914124 0.026764346580957846 0.6011835509588481
C -4.486938955948332 0.5530732627082028 1.8167544142406342
C -4.584129463274622 1.8640964551181127 1.7341857418737805
C -4.01057856327924 2.3044591138574866 0.4705486221050138
C -3.573144856329661 1.249057390756402 -0.19529961962220319
H 8.03303384737696 1.109717430549718 0.007511543127937559
H 6.930557372967376 2.5537983105368594 -0.47784486823091094
H 2.0217378284088325 -3.266898595546232 0.06418702720576445
H 1.4395047232164757 -1.11747991544157 -2.25892100111566
H 0.011375253334558931 -0.13297165115119738 -1.8431592040933722
H -0.19136253756535568 -1.8778550890681247 -2.306409807171045
H -0.1728168495863302 -1.6959250677296571 1.5126154951683304
H -1.7834874091208441 -0.4422760335725959 -0.9331210770466457
H -2.3927201921207084 -0.9122187941223298 2.0333658110268447
H -4.837263753643 -0.020797501384026848 2.653863985962914
H -5.020163656370431 2.5507461869970163 2.476133114738549
H -3.9546873149620536 3.3345375704670754 0.13604092194919043
H -3.0990832615900477 1.2897116774193427 -1.1705098192864107
