21

C 4.9933440151047 0.891158123881512 -0.17011501356120196
C 3.8243719564713246 0.3703315975734428 -0.47677824567762356
C 2.72788387352404 -0.3008750774217116 -0.5775103262498713
C 1.6620454274619432 -1.0358920258506124 -0.549032312025629
C 0.5237364545848955 -0.5788120692184616 0.2860476397335553
C -0.6285112679796944 -1.5788699641976995 0.21695912610653365
C -1.7085544333117504 -1.0812591732270658 1.0472728446948794
C -2.0965730352738707 0.1475609245050767 0.8315552398727766
C -2.4711105665735276 1.3563656063953904 0.4670175869370376
C -3.4794334797778976 1.419806107668123 -0.5840688590977947
H 5.904112132227552 0.31696096193585527 -0.1414007206132015
H 4.9784704821171895 1.9522388051650672 0.055018143385412936
H 1.6193514424327666 -1.9319454739194752 -1.1093126207114614
H 0.9101369305781789 -0.4915819979505246 1.3214366708275989
H -0.27126483326801726 -2.5505756167538443 0.6595503490040305
H -0.8974051007183536 -1.8138401858311946 -0.8250936604385046
H -2.2536892642426545 -1.5581703174964558 1.8206306378330321
H -1.9791684852534934 2.1251412788062853 0.9953037492323532
H -4.465170913866131 1.1173048857425154 -0.12225645497486998
H -3.225900730840093 0.7547681201774687 -1.4412033022006723
H -3.6666706033972853 2.470185490016396 -0.9442271553546917
