20

C 3.3142292881396758 0.6072101941503875 1.4685387239979528
C 3.027640511539534 0.08146155395422323 0.30581784561579506
C 2.6499288707780426 -0.5081893030728404 -0.8124524861684943
C 1.5858795810356652 -1.4127839546489107 -0.7521358701782751
C 0.471250989430104 -0.8957546797346714 -0.3115395046654648
C -0.749911482456392 -0.4484534099526381 -0.2744356845441963
C -1.4077013107442296 -0.3846023828488301 0.9961971366318499
C -2.296170327981152 0.8344244924162904 0.9066467579690057
C -2.350925033791867 1.210327525513253 -0.5655366820020719
C -1.677278797989069 0.039513934581904005 -1.2889284671813335
H 4.034474284468996 0.0667040895215674 2.038229369017896
H 2.7949230215317433 1.5027914295183051 1.6993993739754334
H 3.2438711315571505 -0.19311017665047991 -1.6518561110498697
H 1.7027981699267623 -2.4203390568338907 -1.0466228241562527
H -2.0802273633291635 -1.2853656194270955 1.1037890539674762
H -1.8822929237918127 1.7077871257599118 1.4528409361793007
H -3.3057643723994494 0.6046513687297294 1.3036693762145333
H -3.433667651310759 1.2384104593600382 -0.8804614649011036
H -1.2007903812081149 0.39952520523393015 -2.219528252737453
H -2.4402662034055673 -0.744208795569902 -1.4716312259844921
