26

C 3.350632417091243 1.801166210016795 0.7287654057219768
C 3.5533330817079 0.6260993453130859 1.2581049686891044
C 3.673119533197497 -0.556840215422228 1.8025025853750147
C 2.4485575120029774 -1.1934960546417859 2.2148040326427103
C 1.461540180987798 -1.3264616779478993 1.3332398872909985
C 0.7716237136968053 -1.359131036314587 0.23174614729590795
C 0.730799090739793 -2.4033027959232913 -0.7670939795763673
C 0.24498013002981248 -1.9266981634441531 -1.9038828086234765
C -0.07841329168635694 -0.4946995484084385 -1.7352440876787973
C -0.13858799321632376 -0.2976451022511911 -0.2478392797454123
C -1.4728528510263714 -0.5806772839682921 0.2714295927119894
C -2.2891079014723172 0.44746693834786383 0.3722006673040258
C -3.053302741283481 1.5218670500599147 0.3234695480362293
C -3.7635595489282982 1.7428648446877089 -0.9260084712237512
H 3.1985036700870224 1.7999497668053392 -0.32988219431306215
H 3.3594365696362627 2.616999529024712 1.4084964142519303
H 4.667333774288014 -0.9062045539800417 1.8745423954440539
H 1.0441533058224965 -3.452916757367963 -0.653720606658585
H 0.08410683158439179 -2.44639336957475 -2.8427119414679782
H -1.0980467016540845 -0.2613112570010418 -2.1373155909251396
H 0.18641242161223423 0.7136847775844066 0.06534427505872646
H -1.9014393723781713 -1.4890411815402773 0.5842297815947001
H -3.033598469958266 2.0743873604590375 1.2196765406705017
H -4.526474544008016 0.946028687839513 -1.056191508455779
H -4.313828216228494 2.726888329220315 -0.9327408054322924
H -3.1053206006429552 1.6774161584271137 -1.8368473660638664
