47

C -5.28287945296275 2.4029400560272154 -3.1403040667590307
C -4.509529136128601 1.3468717415761429 -3.0354452192614514
C -3.7687702589920415 0.2625936261227555 -2.845821876276153
C -2.5790848833001236 0.5281741765553736 -2.0800182666217757
C -1.5998776089359157 1.365434389833815 -2.3118191857048367
C -1.584896449206437 2.203440343691088 -3.502016381780106
C -0.5708688304678776 1.514329814088101 -1.2304775735136577
C -1.2978661024441154 2.0096123140757247 -0.023375228891116515
C -1.9348905775967749 3.3886780297537817 -0.30618619964620125
C 0.3940469988747011 0.47488799698302747 -1.10585275592153
C 0.83803452586349 -0.21343688301943872 -2.209679258360432
C 0.7471534668721357 -0.07887662273126894 0.15455823157674495
C 1.5040317413830897 1.471401869352925 0.6434658634160744
C 1.5922312957834759 2.3034374038894367 -0.2625761899301913
C 1.0189157444304868 -0.4729596833034565 1.3308024879501705
C 1.7007974122165241 -1.855695608360591 1.2503422690225348
C 2.0641401566753386 -2.4860480080555205 2.3020849608836893
C 2.0001060844289205 -2.2553998184230384 3.7364918371384976
C 2.6900190341324333 -3.248926749118822 4.347933153964245
C 3.210588140180972 -4.133259503954574 3.37322825236369
C 4.098260633969938 -5.340104219515224 3.595076938704966
C 2.8729979076359946 -3.7403732949897384 2.1609393599554894
H -5.523455099354996 2.899539882530548 -2.2466011624901148
H -5.577900743659065 2.5871567575418353 -4.163354977304002
H -4.145224639031704 -0.6048330733562172 -3.267692395551233
H -2.541064693531802 -0.10619132152853472 -1.150665876844144
H -0.7494832356497328 2.959617354379019 -3.5256320954191946
H -2.5082103298366443 2.873588314739679 -3.44911699324298
H -1.6719825271524427 1.6668849567895005 -4.46366950097201
H -0.7545358526628704 2.0655386139104426 0.8917029188333198
H -2.1834800377217287 1.35516790797473 0.1461116709627967
H -1.268722762515049 3.9586147976676025 -0.9616862735336399
H -2.0018034174333494 3.9049296762298495 0.6639417630485536
H -2.9517341710870633 3.2202992265813326 -0.6961889981046666
H 0.393343493005922 0.10831067262591557 -3.0956785724433833
H 1.637168572306612 -0.9024989930415116 -2.014361677180429
H 1.7119194520632541 1.3721483422111556 1.6123978178001837
H 1.2909531280180742 2.227866494424664 -1.3194899670173699
H 2.026343145817908 3.338610240899081 -0.1044055682431629
H 0.7984625301505673 -0.2444176779061305 2.280421029171267
H 1.860945785001208 -2.222320048015783 0.25813011011830467
H 1.484018125282683 -1.436890517325905 4.1768536125573075
H 2.8183798233246224 -3.3321374975784988 5.433413014757411
H 3.617745679900058 -6.216316503661793 4.05397525229111
H 5.005433625536617 -5.0272809552327375 4.206444020746806
H 4.49471349096655 -5.664589833805186 2.5735770819517905
H 3.135510805449255 -4.227518150632984 1.2110807915613717
