24

C 5.613939657345427 0.5397550574363299 -0.13206513520764232
C 4.357943641905161 0.2593453177663183 0.09941785718977854
C 3.218698791305777 -0.14022626330399401 0.5435341921462906
C 2.1066503469179576 -0.6865990133658313 0.9465962435334413
C 0.8720773909228514 -0.3647680107890948 0.1880911578987465
C 0.628858980255469 -1.5359337382889133 -0.7718242409008587
C -0.23548338553226641 -0.22865268314389248 1.1479822665746238
C -0.9046310384581145 0.8888548096750122 1.1693693964461012
C -1.74088311842172 1.8983905047188878 0.9760325389847611
C -2.78176305639849 1.7076220755681217 -0.0726670578244001
C -3.286571948556014 0.3109895785157137 -0.030827190418752454
C -4.5716920758483655 0.08195657288948165 0.20054748013219031
H 5.914537979519447 0.8564577296721626 -1.1197612962888304
H 6.385889984888863 0.4723730690481044 0.6211014190571658
H 2.0250989277903044 -1.345246331781471 1.7796562743692965
H 0.9284535530078178 -2.4731605440657054 -0.24573004613636767
H -0.45029995792517796 -1.610469051797833 -0.9959409556036422
H 1.2535352959770416 -1.3784255015617615 -1.6757970123890271
H -0.4893097601645618 -1.028042613059559 1.8101088190168448
H -2.3999534862725436 1.943237248825102 -1.082547184391232
H -3.6049414362414507 2.3946807693291174 0.1697680945369376
H -2.6286517153637687 -0.540401255712258 -0.18562779587413017
H -4.960569868565366 -0.9376501109778467 0.23489224142093398
H -5.250933702088422 0.9159123844034746 0.3586876362862251
