44

C 9.566062546905217 0.7108950396977595 0.5875045037166917
C 8.309203180360784 0.4622088391520263 0.32968884060243453
C 7.160644844729916 0.25356555644684703 -0.24303428558439516
C 5.978881769245592 0.0583367280021717 -0.7536647750330082
C 5.675719377373833 -1.1341298985422612 -1.5421968601395806
C 4.472863603647693 -1.5980879593953519 -1.706450601942242
C 3.3297896136357665 -0.9085833887438199 -1.0772862579845612
C 3.091158908886475 -1.4851250602993813 0.28343515234255884
C 1.8748188997629527 -1.4412802194170842 0.7496834398251186
C 0.7416051102166433 -0.8761910765374707 0.04693033645548883
C 0.6634641261762313 0.4283933572917978 0.07730561182640411
C 0.5757427062055847 1.721213006258917 0.26402389302832385
C -0.13697524717585385 2.172967008082022 1.4293531012382445
C -1.4428539189951144 2.053900778449587 1.5440104348651398
C -2.177033084395468 1.443424112915699 0.44851643749384273
C -3.479552563282253 1.322628009361001 0.5585214400451713
C -4.321933681423778 1.7320919585693948 1.6702184901193384
C -5.571334795606468 1.4157260435518317 1.3478234168467702
C -5.577838277811877 0.7957795248500387 0.02661352769364153
C -6.770456777367278 0.28417172900294796 -0.728478357985297
C -6.345203068249646 -0.8883327604575564 -1.4972595099903163
C -6.3379198631775795 -2.028901595238357 -0.8620641139005238
C -6.360906525608068 -3.132815488701294 -0.14562883885450964
C -4.344325056527464 0.7354117911494632 -0.45050211960628317
H 10.351279391037083 0.06677800993273186 0.23146429952636693
H 9.807877469840237 1.5697833963558108 1.1616923808560518
H 5.224685833660034 0.8049024612638334 -0.5781229485886267
H 6.510918850311521 -1.6366603282048418 -2.0010133729484507
H 4.288122157514987 -2.47739229514571 -2.292999142633324
H 2.392008203137579 -0.9888234277529792 -1.6822372807612314
H 3.881839502764105 -1.9234696515159457 0.8693536426447072
H 1.6654769868838935 -1.8500880857876538 1.733044169527395
H -0.028431651846392823 -1.3506154276880755 -0.48227408835499036
H 1.0481877512396982 2.2896982143472644 -0.47515600701722116
H 0.3963475737859895 2.6324573232916855 2.2593295688680928
H -1.9531888267656512 2.4101342147135707 2.448347978554278
H -1.6536133111173874 1.1028911682852731 -0.4260144014625751
H -4.024407429796107 2.211084445638166 2.6084451953725405
H -6.4503030694542245 1.5880665070111553 1.9637942821875625
H -7.198493598729288 1.0844989517891672 -1.3475155688541582
H -6.039518199642053 -0.944857068530772 -2.504862238556293
H -7.280195134100394 -3.655968574297928 -0.17426502141646733
H -5.456504603519712 -3.3455867453186547 0.36189186693020214
H -4.055709722729192 0.31590087616503815 -1.4272882211891162
