30

C 6.960902697545508 -0.48361546045025533 0.31369018824650863
C 5.940664148414625 0.0009068286466763348 -0.34666264436170463
C 4.855600109964513 0.29992886207647323 -0.9670313907829613
C 3.870579452606918 0.9288809574685188 -1.5901738249027175
C 3.0760510615918877 1.9113165030835413 -0.9464533309569049
C 1.8678852560410644 1.8950595334205544 -0.5154253359599451
C 0.8865584923560222 0.8504646310802855 -0.539150635068722
C 1.148004924823028 -0.4817602122470608 -1.1045764430508855
C -0.3259043469243896 1.10163998117504 -0.014755782081459211
C -1.3120810281612614 0.044969135763197006 -0.04202463506235469
C -2.506250836170331 0.2645034902656665 0.4658889119422049
C -3.5097850989294637 -0.8277212979330203 0.4320179089777227
C -4.761022531397485 -0.288646469636375 -0.1390592013078526
C -5.722131092257304 -0.4049202535162591 0.7487251656471932
C -5.17433753111379 -1.0163004649386798 1.9375667108984465
C -3.890643593036005 -1.2728256594433724 1.7817960029043192
H 6.980632610922426 -0.3723976751042632 1.3912944359243848
H 7.787734249280913 -0.9929717078803615 -0.18145633115094048
H 3.729691607977784 0.6250142499751294 -2.6384284330826397
H 1.5121944149492508 2.8566424901929954 -0.03821215122062145
H 2.172317839221875 -0.6795795343936966 -1.3854494417610617
H 0.9108810231607435 -1.2362445996929439 -0.2878046710067527
H 0.4623317566802612 -0.6967493846221074 -1.9600265196546869
H -0.5389668818234634 2.085087908516525 0.4154633175782117
H -1.066558397049806 -0.9070865918346213 -0.47628048336498596
H -2.7236175024087714 1.2290351272276179 0.8919737661403268
H -4.826481671751792 0.12781353622717445 -1.1399880857965718
H -6.749565249535062 -0.07327129471671893 0.5574220210162301
H -5.780345784105913 -1.222226458622078 2.8290068188508384
H -3.2743381008731878 -1.7322813099247294 2.5481140924466814
