22

C 5.700788377886563 0.492384165328342 -0.37783021334332706
C 4.462701084954965 0.350531434443917 -0.7609607289855117
C 3.2215123573558593 0.002968785793945905 -0.9356860882087072
C 1.9986921009768768 -0.4296335781715927 -1.0635460017349343
C 1.4000518138396016 -1.4037812430794196 -0.15913457009001794
C 0.2786903878928454 -1.1018648482291262 0.46762548477012433
C -0.38441619591426446 0.19720650508904441 0.27585658456954415
C -1.8682848266593026 0.08906996427889301 0.3803598319939021
C -2.6066126743167226 -0.9645703823314601 0.6093159721630305
C -4.018184640612895 -0.6354278996387929 0.6322632887599985
C -4.143684179640515 0.6702150967995514 0.40838804152411423
C -2.77580998440417 1.2521744843816145 0.22669964512165852
H 5.938990519604669 0.8279973313294142 0.6215756747628293
H 6.506432230070432 0.2733618161356025 -1.0632465199011523
H 1.384123034357795 -0.05962085336430309 -1.8729225853336815
H -0.13592160026620878 -1.845123160375005 1.1284446943934945
H -0.10246282580453624 0.6792384697890854 -0.6850012721783637
H -0.08307807607363354 0.9387399447594001 1.0702460342480071
H -2.2066445366909764 -1.9630618839691796 0.7630349743416389
H -4.874050532970088 -1.2998056222412961 0.7991060792469912
H -5.034510618547769 1.264860222981188 0.3543747073158354
H -2.6583212150384625 1.6241224384309658 -0.8189630334354604
