18

C 3.638861013398637 -0.3772225171584987 0.6766802186696568
C 2.6840660169105433 -0.46006600419232313 -0.20728493440597237
C 1.6857510889124507 -0.10200726308972101 -0.9687005008844825
C 0.6473595244163232 0.8148390387037454 -0.59976287897339
C -0.5784340249123042 0.3659226773344339 -0.3764950384565461
C -1.0242851803589361 -1.0718528535437988 -0.4719514669836602
C -2.0743605140582035 -1.1229204043269885 0.5971835568369929
C -2.5234688438071577 0.09180205494159159 0.8675253132922852
C -1.8211034242269033 1.062156701811283 0.009516707382683356
H 4.442218694425002 0.31447354713500303 0.6390876156852082
H 3.5557101488796494 -1.0661644947050726 1.4616974348060239
H 1.7089265072644795 -0.5557651211690934 -1.9042205562555528
H 0.863516027728618 1.8781661733848427 -0.502714949036374
H -1.489880916804826 -1.202554027039867 -1.464923590843053
H -2.379865167507905 -2.0790575301965366 1.0505292258989494
H -3.298598620830023 0.27733273179795725 1.6239047444902366
H -1.6262487282047282 2.031714462345437 0.5054793805044586
H -2.4101636012247067 1.201202827967598 -0.9355502817274587
