26

C 5.750282445758332 1.00196836283068 -0.02991806571784102
C 4.463437621726114 1.0230697965986675 0.2786300637201416
C 3.2477334590860942 0.5903862436634876 0.5647632776051842
C 2.8307765838617076 -0.8127709728612879 0.49143825332282826
C 1.5874234319146976 -0.9116708315799905 -0.36623776257902346
C 0.512587772722628 -0.09670235523651383 0.24469403444313467
C -0.7372455746554304 -0.2373618504121532 -0.1551511647668771
C -1.0688872231243098 -1.215801839836032 -1.2213275666442425
C -1.8194253439887322 0.5486418066657941 0.42484530466013176
C -3.055646154796638 0.4159482008100573 0.036402057230286715
C -4.108377615005767 1.2195525769364548 0.6403412161930382
C -5.3583316069734686 1.1122990108676736 0.2750272354830144
H 5.968987167682744 1.119183509841454 -1.0775289462502244
H 6.4550941573218745 0.8719411734116687 0.7628066045348615
H 2.5393050254706475 -1.1492155045555523 1.5239137480032898
H 3.601704871244444 -1.503604582149156 0.1183688369828444
H 1.3240591728184807 -1.994596175879591 -0.41204258385205256
H 1.7978616708714066 -0.5995806485402746 -1.406473568246228
H -0.1405102266374869 -1.4818924329132424 -1.7365066881106632
H -1.7935822707237836 -0.8092244111996034 -1.9578867068616532
H -1.4809665173498339 -2.1162156915692982 -0.6955862945109944
H -1.572887055777474 1.2528412335896335 1.1934790448955193
H -3.347666790681239 -0.29271734480047323 -0.7458120340630046
H -3.8563433125426987 1.9334414322153328 1.4199549859497282
H -5.629805417738217 0.4144427892077419 -0.49221152749371916
H -6.109578270484117 1.7176385048943705 0.7385084408480647
