28

C -4.723811671794512 -1.0661445103208866 -1.2393843491612468
C -4.519816324151068 -1.2083848664940164 0.044233567036563615
C -4.3082656999311375 -1.247351058727056 1.347939140604423
C -4.111820200468305 0.03187767317856794 2.010797924498588
C -3.1006841098525544 0.9141784006964943 1.264512264046088
C -1.807558540660054 0.2306952089378309 1.1989780083830872
C -0.7130507300556543 -0.3239465227879503 1.14512513694491
C 0.5300211546513186 -0.981184727857749 1.0865844988620503
C 1.5685862715052372 -0.2662723539491876 0.7780479141068138
C 2.5359704593546755 0.5033836291781975 0.355588271567341
C 2.721298130176881 0.5923496654418013 -1.0477959176267477
C 3.918333674796241 0.8560465859788029 -1.4788237218104037
C 5.187360183970054 1.0136454245287865 -1.8157231926851185
C 5.968131290935304 -0.20498275379398345 -1.9677444544453275
H -5.752443655483541 -0.9477047973514776 -1.515557138625497
H -3.85566931295697 -1.084717658668848 -1.8368993535183955
H -4.310722419388221 -2.2268733424366123 1.7414844659724886
H -5.040669503605666 0.5991928998694546 2.2148458500709465
H -3.658269126949592 -0.16411066610336714 3.0167872049700826
H -3.4304665267119394 1.1224760042149353 0.23871037443075843
H -2.9926063925912647 1.836356608971748 1.8698035446085082
H 0.7414995265805073 -2.0054247671442624 1.2625868613794733
H 3.068843700383285 0.9750217152311558 1.1329791011384005
H 1.9963433581130245 0.46816873878633913 -1.8180892221969744
H 5.459799148415324 2.025570917782182 -1.9279815077209062
H 6.250982277340421 -0.6513451270508095 -0.9715572883064116
H 5.468122064628938 -1.0047836367193814 -2.551786957867457
H 6.910562974129238 0.043279306519167754 -2.5376610249134397
