44

C 9.48948850281325 -1.150918786593051 0.39640823008642956
C 8.44545247370416 -0.5117004106160391 0.8812998529106347
C 7.372142577638617 0.03731276798240462 1.384173877769826
C 6.402164067379303 -0.840341856449302 1.9535111970508539
C 5.449710843835118 -1.3878894144409208 1.2321096803842462
C 4.460338261156208 -2.3021917282848525 1.8908607529161476
C 3.1243156859594743 -1.9075870710093383 1.3795330668001795
C 2.815606086323413 -0.6273475185057708 1.3258082467587873
C 1.5077379270201672 -0.19221403322988384 0.827896221234528
C 1.174122896978672 1.0788415311750614 0.7637585557467638
C -0.12726017022333605 1.4483870013760647 0.2648752548020103
C -0.4623310744702889 2.7236313422119625 0.20040677744031019
C -1.7580613478251186 3.086691534562533 -0.2965944082514554
C -2.161368782501897 2.456103948818754 -1.380098920589103
C -2.4915749093317614 1.7372198402001289 -2.4137126503033937
C -3.156267969661917 0.4869103264893084 -2.101004657523278
C -4.268884759583021 0.2732483920154373 -1.4238565354180641
C -4.490562852324343 -1.172829339581373 -1.4037376382795543
C -5.480424752856015 -1.8277045208562197 -0.8392436332082666
C -6.54389060735174 -1.151533267783172 -0.11990692374263326
C -7.033613412721324 0.04254927934058386 0.2835485944158462
C -7.7878227469131875 -1.152980183016767 0.6566415098775752
C -3.396827860964392 -1.784784477003348 -2.136627925448376
C -2.6297970785839646 -0.8047248770471442 -2.5353426067965508
H 10.27460111336541 -1.2945466073340655 1.0892772207468888
H 9.400523272823364 -1.4336123248220267 -0.6173628053425558
H 7.351487426586669 1.0985588436131206 1.3059289351643222
H 5.39851333816809 -1.1678646864135895 0.17691301949126362
H 4.533463264650296 -2.2384138222414447 2.9759731438748753
H 2.4543015600538203 -2.682881757889241 1.0703805526689265
H 3.5078422535983385 0.12875549089040098 1.64278189880593
H 0.8153288605104887 -0.9406052477392193 0.5112812901429031
H 1.8714764829708075 1.8312770441088608 1.0825400626660502
H -0.8269389399918448 0.6750641522311385 -0.056107249127020316
H 0.2608100318635594 3.456141733419634 0.5284688280086711
H -2.4562156463968874 3.78664839669119 0.06787267121835806
H -2.238963532609303 2.142277082002794 -3.3486988253123724
H -4.892764216973019 1.028255590090176 -0.9726227774877491
H -5.51383048503228 -2.907105464710005 -0.906606936551371
H -6.943925440275734 1.1192913959216524 0.31564421017903743
H -8.698683526223238 -1.3532496011755706 0.04656657084950436
H -7.7757196660909935 -1.437657187954519 1.7279870998515896
H -3.254645600735062 -2.8519661473617526 -2.3126880595326753
H -1.7190515477543318 -0.9794138835285079 -3.118234768945996
