20

C -4.955258226885733 0.1620113328449859 -0.05208279573444453
C -3.688732114202206 -0.1478924136867243 -0.14984575358235716
C -2.4847410651841972 -0.5211785323157946 -0.436931219172258
C -1.2923401540830144 -0.7386925862022086 -0.8601438815210891
C -0.09625596196244711 0.04335544061776654 -0.5280792672916359
C 0.6176892057021361 -0.4591226785510312 0.700731156145273
C 1.828005714100737 0.4585786400479807 0.9022746254210543
C 2.648724183873091 0.31708314670099924 -0.3448331395655781
C 3.88563573660895 -0.1256252227245434 -0.24036788148313004
H -5.637581090475432 -0.6346238399139867 0.2094149140657158
H -5.349630351226849 1.1456436974286555 -0.21390186870776684
H -1.1509434363317066 -1.5938732761108647 -1.5376713874160335
H -0.2214395263091429 1.1241718255291249 -0.5613455042467462
H 0.00017971236869698118 -0.464290064154033 1.6042025788694008
H 0.9690871685631499 -1.4959632062732262 0.5174116766953265
H 1.495399640602665 1.5153041424185698 0.9252783625296523
H 2.4029425465175525 0.18926248709457177 1.8011415309348482
H 2.206519144297138 0.5796241618631953 -1.283770234579255
H 4.4894145627214685 -0.23183822219456726 -1.139512315854241
H 4.333324311305023 -0.38885961998017854 0.6880304044933114
