31

C 5.32361646756046 -0.6568335662834074 0.5418039661493269
C 4.098116703394696 -1.1072935699331072 0.3522512403426818
C 2.8823692848471394 -1.5166808948635284 0.08104644560497272
C 2.3684186161022733 -1.1695052827074166 -1.2117449633690598
C 1.4405862888595249 -0.24380071458592545 -1.3824488652938134
C 0.852439813807697 0.5137234442633287 -0.2552563057314378
C 0.6310385338905016 1.9401512795251201 -0.5744061921754666
C -0.6417772228505146 2.268422347085834 -0.4382370739185813
C -1.2534275915695423 3.6179804813638072 -0.671193113364124
C -1.3653100683710961 1.070497380702147 -0.014183589554918745
C -2.7266184595824177 0.9190467088823621 0.25727396326458835
C -3.2159777474204936 -0.3066398230438513 0.6481070111960333
C -2.3614453343354356 -1.3634537171265577 0.7661046810838019
C -2.790182328259127 -2.7286608219603705 1.1814671766996008
C -1.0229893468368947 -1.190071431815568 0.4930762750294598
C -0.483402647899669 0.021737177566307286 0.09710371031013948
H 5.370623994769364 0.30979705423277837 0.9652757656773138
H 6.083617405197136 -1.3282433920054544 0.24175488303002476
H 2.423230736238827 -2.0603620098883346 0.8596948562784356
H 2.7590268220599543 -1.6884671989590265 -2.0750756855799364
H 1.0765878809926315 -0.008058187533546032 -2.371484026916428
H 1.3884668383073306 2.6611794915362115 -0.884868746011994
H -0.4820147762159496 4.413271032680989 -0.4651455167445048
H -2.066890664758403 3.7861872995841166 0.07468393851289694
H -1.581385740741493 3.75326857692368 -1.7107407237949455
H -3.4066085607044743 1.7625981899449408 0.16273286031605558
H -4.272111058653242 -0.4439739842523174 0.8636705419840135
H -3.8720480323617985 -2.7905178437891243 1.3923557912351574
H -2.576232519721649 -3.447686866073485 0.37473915616738596
H -2.2534329192040654 -2.9706374027618794 2.1210688974926093
H -0.32628436654124815 -2.0169737567088326 0.5805736420808204
