32

C -3.934895935917035 -2.51943076474142 -0.9568769813581574
C -3.434234360481079 -1.4948859412240094 -0.29228704896975083
C -2.876484853891527 -0.45979354854424004 0.296679857895906
C -1.829885667800348 0.22218184048731254 -0.45390899026719844
C -0.6114688863906441 -0.5860822086883936 -0.6135780159208323
C 0.43256011093710217 0.09100848225416051 -0.12670297048659687
C 1.8199815549468952 -0.37536505275634596 -0.10178670255432222
C 2.1533961774241237 -1.5541346134750893 -0.581533744418616
C 3.520070759238912 -2.0712679615937315 -0.5832618655070321
C 4.5166463131415036 -1.1124443610510344 0.02422222714491671
C -0.07505233973090769 1.3594266024866726 0.3640653036975537
C 0.7624605165258511 2.4202355014588903 0.9903325861425929
C -1.3773579404746814 1.486073659759421 0.19900892554914798
C -2.2356513179150888 2.6100085283181604 0.5640309897203555
C -3.5216598865139304 2.6076307375204877 0.34300192976653354
H -4.76096354279501 -2.276437893494605 -1.5711146251207666
H -3.4402052647745616 -3.43593110151451 -0.7824645278372497
H -3.2659877251346425 -0.25207504860808605 1.2555211024587145
H -0.5847681804139261 -1.5631573288626992 -1.0539285127372164
H 2.5864246372764517 0.2465168208709321 0.3123591665543738
H 1.3757789328570307 -2.2034644215296004 -1.0102210456964078
H 3.597958263009626 -3.0269079823385505 -0.013911104887665515
H 3.81578206664629 -2.282840400689535 -1.6275491951239631
H 4.58872479393162 -0.20820891694537985 -0.6329355606550692
H 5.516396080581951 -1.5735912470068631 0.12277838409754624
H 4.217102011519951 -0.754186283649704 1.0161651427101521
H 1.755367850904323 2.481032253795967 0.5022046693157716
H 0.2910097140654767 3.424184791671261 0.8432420779638886
H 0.8828229032349534 2.1593095019254407 2.0496747780422373
H -1.7826775109130002 3.4661981523190217 1.031392690040635
H -3.9608363514066327 1.745465489569698 -0.12471844225498394
H -4.1403529216885415 3.4309327142762673 0.6120995026955198
