23

C 4.855577318752076 0.7024712607922524 0.002104757133236771
C 4.284603915221839 -0.4918834555067028 -0.06280392853079765
C 3.1429330654518894 -0.834253422360454 0.8375367182760066
C 2.1434378592166285 -1.5425180553301372 0.06071872123854112
C 1.1544014620554732 -0.8008497942020746 -0.41666601618511967
C 0.19259186292041433 -0.007246213005031495 -0.7858928048242652
C -0.8883746066516642 0.13095082322358864 0.15593989834857844
C -2.1214245605361675 -0.20728890027085312 -0.18189812028279287
C -3.19657245160646 -0.03988003630722431 0.8401765602578065
C -4.460872017413272 0.38279562381789023 0.20373586879265246
C -4.452870479698437 1.3214775120593336 -0.7229381681683786
H 4.522692531807524 1.4606242123982982 0.6966589266495049
H 5.679604859315611 0.9160340182174854 -0.6646391217291143
H 4.61066219147025 -1.2423152488057079 -0.7470507780357268
H 2.739567645280987 0.0695669473641087 1.322690715853539
H 2.056902229448018 -2.5566691042539826 -0.19761910758494722
H 0.3270401329854281 0.4410306909094954 -1.7373459305848762
H -0.6477675843305749 0.5183948989126121 1.1372739693449978
H -2.3156162756890786 -0.5869963129342275 -1.1647535499358266
H -3.321969652181255 -0.9696375859086095 1.437416340966949
H -5.384310209303567 -0.09808601186201651 0.5195391932990958
H -3.5446676690395456 1.7899792271080106 -1.0291418838944568
H -5.375569567475567 1.6442989259438971 -1.201605791164974
