18

C 3.1815034771214696 0.5714259603346421 0.1683582249944224
C 2.678011551113987 -0.18702137367557142 -0.7895779925397451
C 1.268807266855099 -0.4052954409947819 -0.9514514371308003
C 0.3248350258544331 0.10368744754584061 -0.19316520634979684
C -1.078340259374352 -0.21367020445130597 -0.48665500417760094
C -1.2717417215907691 -1.6707758757846833 -0.7646027939902953
C -2.0297755845538403 0.34582594696431396 0.480569692917753
C -2.3342236898118585 1.6328499444867213 0.42020517034411614
H 4.245133340630573 0.7216410306227311 0.27131482612372015
H 2.559056576653137 1.076914927286462 0.8930605981525694
H 3.3583196144548775 -0.6633002762182366 -1.48083387876837
H 0.5643845529515851 0.7438585706069213 0.6321204845951235
H -0.43097717946942216 -2.3069768779073048 -0.45721065446633274
H -2.2178539690401617 -2.054727361391752 -0.30898966854794263
H -1.3942826149876837 -1.8076897967442076 -1.8681363941260467
H -2.5058668928579055 -0.24426033985948495 1.2550051559178876
H -3.0264921713288775 2.087837497813362 1.107970278117051
H -1.8904973226200692 2.2696762213635613 -0.33053476048788727
