26

C 4.589704934057808 0.17558776397808062 -0.061476290855102096
C 4.3081397497337 -0.2851464283211457 1.1346354126170541
C 3.2237725896296805 -1.2948870404927204 1.2633883315525904
C 2.020633402852244 -0.945472237058972 0.4174657917230915
C 1.5128466249207067 0.3747033605443114 0.8732243697051103
C 0.2631984362033064 0.703284413803051 0.5701759148140352
C -0.6249830169925215 -0.19190410617351153 -0.19585085059724372
C -1.939723465372279 0.5423111043967725 -0.4463096233661109
C -2.8684014312910873 -0.3166201382178664 -1.2141879256822128
C -4.166199119065705 -0.1910875573247651 -1.0142850609376994
C -4.707515104211804 0.781716808741511 -0.047164687428313076
H 4.051164901711472 -0.16869988509561906 -0.9180256091627892
H 5.368483537421415 0.9048140634527764 -0.1776305923443913
H 4.867278340713325 0.07289989203711125 2.0205312977236507
H 2.968796605265777 -1.5517944491821682 2.290152137221793
H 1.2432391505748845 -1.7226856734030935 0.6623631970173474
H 2.211407283597639 -1.0091013195002878 -0.6520308875456373
H 2.127752398633988 1.0602773088769621 1.4356667911449734
H -0.18594739337328306 -0.46411239489448075 -1.190969493006368
H -0.8341982160343109 -1.1536593237633574 0.3463791375351819
H -2.3383067759786513 0.8444740909658266 0.5430613921119832
H -1.6737066729488326 1.4604049191434978 -1.0082641022792131
H -4.84310570642139 -0.8161740350455767 -1.573041488530896
H -4.117581962812354 1.728295950886857 -0.032645157128791395
H -4.705585368421386 0.40664679060988385 1.0041219637571848
H -5.751163722403561 1.0559281210410478 -0.36479589773321885
