24

C 3.819147694438599 0.6279025470737422 -0.5662161855329105
C 3.020508185346976 0.34394870490881085 0.45550131953962447
C 2.4308930578362262 -1.007561146119186 0.5728654486062199
C 0.9342034628399465 -0.9493737570933672 0.8220114971767906
C 0.28788950264189744 -0.23751493939076304 -0.33069491144551755
C -1.1563817882114986 -0.10045670190710362 -0.23876450300087979
C -2.115573893063213 -1.2441968525741576 -0.15254264364767656
C -1.6911982239159875 1.1138097029456169 -0.2286046471518086
C -3.160665331720732 1.3484321911456596 -0.13702538365080433
H 4.043300497397831 -0.12277864467351145 -1.31616864986117
H 4.230633713116922 1.628155178637181 -0.6163144440807445
H 2.781097368334262 1.0618236829599517 1.2096714008219334
H 2.7067477233652157 -1.6852290958700293 -0.24147991052868253
H 0.5229902538553255 -1.944673215489462 1.0131092191922377
H 0.7818018056642819 -0.34125128705679186 1.7402379086140747
H 0.5236785874687659 -0.8116538383526687 -1.263057876102963
H 0.7588792963836816 0.7522303105958218 -0.4659049058307565
H -2.5942174438377785 -1.4438667972530568 -1.1337350053508057
H -1.581217157786959 -2.1827795815274307 0.16308831219177072
H -2.8847866404075377 -0.9566555625320177 0.5952153721090291
H -1.0596845111454232 2.0187954373102164 -0.28856561208283876
H -3.4301331981371144 2.331996732926258 -0.5293651777483487
H -3.715390836142353 0.5821174340649911 -0.7341084523834916
H -3.4525221243214794 1.2187794972712829 0.9222847428365538
