48

C 8.398187336900547 1.3528085849885636 0.2765474812121774
C 7.2733920417114915 1.8586569071666212 -0.20183201797632805
C 6.359753262296485 1.0102688903967219 -0.9865782431970591
C 5.099935201423656 0.7099625500776274 -0.2824360584864798
C 4.840729410374733 1.0905012958005498 0.939679286610532
C 3.6162075224608503 0.7929325696737451 1.6102787631266187
C 2.48648748104966 1.0096197232285864 0.96070303524504
C 1.4759827085760067 1.1822647475632138 0.15730895708803375
C 1.0998890207668408 0.08298857179923941 -0.6561536693065894
C 0.3886788402008829 -0.8590750598277181 -0.09665316180224365
C -0.33120275158419743 -1.733978187450282 0.5572922638328579
C -1.7758799461973296 -1.4271702564535622 0.5129731934370817
C -2.1357638942816495 -0.29489773037782513 1.0531815254168284
C -3.403925205276087 0.2813412834998153 1.17424193231291
C -4.312403526617027 0.36882617314280014 2.337074619069812
C -3.878558634544667 0.8975861935957602 0.12182982127101166
C -4.270985508237224 1.5973611196681046 -0.9303373356086306
C -3.8762858620847394 2.9544570825379006 -0.9628079171416273
C -4.261045480072883 3.6905007452776135 -2.020916883047569
C -2.6366091110676075 -2.377411037832441 -0.10736742738006118
C -4.140623290139008 -2.136182172659686 -0.19601005170480856
C -2.287211957135083 -3.539228492381268 -0.6646469940250398
C -0.9426480910818894 -4.05802165520622 -0.7425187763953478
H 9.045876404377287 2.018291178106449 0.8530139510918497
H 8.65627636599239 0.3327952124972074 0.10193262716438008
H 6.986136713684013 2.895600569024656 -0.038417501216016614
H 6.839790500245849 0.13334341676822495 -1.436455985867133
H 4.354766822432958 0.14024616422518654 -0.8208341898423849
H 5.597403951204537 1.6597334970450615 1.4637704918274475
H 3.442021016094836 0.40974627767289756 2.5819040498373487
H 1.047534219240045 2.159604080576995 0.21423772202718142
H 1.3045990272886177 -0.11261970844409644 -1.6840164440244143
H 0.1723276427436409 -2.4980811076049605 1.0293522005311075
H -1.235107283648597 0.27149895919128825 1.476665718972023
H -3.940402520822289 -0.35625681726533287 3.0930933242614853
H -4.360925035449774 1.3953449649660128 2.7520423060833425
H -5.344010606526331 0.06378268855103443 2.0477783926702147
H -4.833412739266446 1.0170941789719548 -1.6000748547117576
H -3.3022085311076483 3.4361011483462605 -0.2201115715104546
H -3.992287429826272 4.743392400916972 -2.1112084518589627
H -4.847459164582699 3.292236217017739 -2.829044956689884
H -4.323713105101997 -1.5399629292100898 -1.0781286100842224
H -4.535423404397133 -1.8332959766515502 0.7612748505751099
H -4.653398890386536 -3.126394628459204 -0.4133703591217659
H -3.1144203600578244 -4.147739434513803 -1.0997272462150922
H -0.5826026635729991 -4.4695817955861425 0.22447439247316656
H -0.187078028769218 -3.385104621431306 -1.1576949764003097
H -0.9803824672299405 -4.953885780941872 -1.4531397266999928
