22

C -3.607710787037671 1.4708982985583674 -0.3705994767139967
C -2.6435518315736393 0.5991673838794096 -0.5642366773659587
C -2.87017431262781 -0.8540857635155198 -0.7769053928571051
C -2.178888874401986 -1.6903661022807095 0.19897998082133314
C -1.0227751369618185 -1.2600332492798028 0.6142285374939027
C 0.1877814706653495 -0.8066166075409015 0.896600770364983
C 1.2513555462205717 -1.2497416176754053 0.02006072888725521
C 2.4488093592630618 -0.37710253050553855 0.019805412162711727
C 2.5370739411787153 0.7500979493130334 0.7123177556070772
C 3.7503719808306433 1.5766182348560756 0.6744948582692941
H -4.630245057373814 1.1302705997096674 -0.36222982240034074
H -3.3751415454199107 2.5071511590087807 -0.22321917389681636
H -1.6106998703175024 0.927644219243652 -0.5751201159401088
H -3.9261796000454057 -1.109377297024308 -0.9482366439515024
H -2.494949761826177 -2.602124050734509 0.6116242166855312
H 0.19402382078115854 -0.17517606182864237 1.7369162405841134
H 1.579465985702283 -2.2749081552562433 0.35528944039260685
H 0.9164433945539276 -1.317001710589746 -1.0520798034773797
H 3.291641614191301 -0.698700739862991 -0.5901270596123801
H 3.8980130299420295 1.9915657310900665 -0.3401810161327634
H 3.6452852323132796 2.4358439717979805 1.3831801582747623
H 4.660051401943392 1.0259763386372782 1.0131872823627803
