13

C 3.1003766933239567 0.00510518051290496 -0.30815648924266537
C 1.8531632202309205 0.3394432341668583 -0.015460637460872277
C 1.1879409635852278 -0.3678170859735174 1.0697454405420814
C -0.099450127427268 -0.21387124062238727 1.2850781376875435
C -1.3969730646339527 -0.035921011441222825 1.2624817628180671
C -2.19598528475632 -0.5144962121784378 0.1617443070207637
C -2.7821407480889806 0.285573305710598 -0.7071486871364688
H 3.6259565157021925 -0.7697413675768772 0.23361358169495194
H 3.6636061204372217 0.4846110756539975 -1.101813508988705
H 1.3987172868105466 1.1141227702671945 -0.59372901680329
H -2.3407330731609495 -1.5902347449557306 0.015097036086558512
H -3.3773007044180003 -0.089639608561882 -1.5260632851689762
H -2.6371777976045334 1.3528657049985187 -0.5597320744145384
