48

C -7.212043174490956 -0.04045425162340669 2.418277338376883
C -6.587538013417311 -0.11294175672006146 1.2437053040372699
C -6.2317508858035495 -1.4035593628336984 0.7230334506563872
C -5.614967018229474 -1.6147523881772239 -0.4221433481078618
C -5.182222921334323 -0.6180854755925976 -1.3633038258971883
C -3.743318939968426 -0.27252799490207164 -1.3974902933955327
C -2.781815279996149 -0.7776570100688934 -0.6777319232219252
C -2.6984768977651354 -1.804707315063114 0.3762715916734575
C -1.4930663473692876 -2.0676301394523344 0.9102791505533775
C -0.29543415517925015 -1.3718614583902686 0.47534204805274316
C 0.9676775208258067 -1.7121287449720886 1.1009138883896716
C 1.4323666501781402 -0.8398160691817474 1.9845050159206556
C 2.0518617129274537 0.09170791245838723 2.672155061584181
C 2.7350756664067886 1.158505133689708 1.8569827648644195
C 3.442761677115197 0.46433166985369273 0.7607151502082011
C 4.77666443092891 0.6101324253806178 0.6857947690188753
C 5.555660822018686 -0.02309791125973928 -0.3417035075281014
C 6.847339629971953 0.11557446802201789 -0.4177258266297862
C 7.666830107200318 0.8983631907623785 0.4854977163682964
C 8.979647237666764 0.9631837940567962 0.30396720818061557
C -0.34027814605040335 -0.4169561447994978 -0.4987270794092409
C -1.5592965712210676 -0.08886154181606438 -1.1026180672083237
C -1.8773083610846593 0.8293583745936592 -2.097314392277502
C -1.0001450094288122 1.7912449283019525 -2.8733822034739362
C -3.202898687281345 0.7627970902490597 -2.3214833776336063
H -7.484600104841365 0.9201656690992441 2.8204818142109205
H -7.447114655126908 -0.9256492035186943 2.9688636155238677
H -6.361290651286916 0.7788413850861041 0.7109819375029037
H -5.43905210683031 -2.680766331713464 -0.6557449801794087
H -5.553716111759361 -0.8652357353159349 -2.4072096127819025
H -5.72209623415345 0.34995013415774046 -1.1457452896457572
H -3.5613423081563993 -2.317078064364651 0.6982774486705511
H -1.4241586051196427 -2.816156990670636 1.6808210549263995
H 1.5633345378442007 -2.574195478190754 0.932845382133935
H 1.927993134428835 1.8248732816044113 1.4878636052437537
H 3.4204398909281726 1.7462799332034735 2.463791183357307
H 2.95654543031654 -0.14964729869839308 0.019972695504876205
H 5.276141255898099 1.221209870521073 1.419772568980417
H 5.031433254360535 -0.6447482528381182 -1.0850585121982994
H 7.372046844160486 -0.4032347588444281 -1.2362043699826395
H 7.23455873858346 1.4429315971566004 1.3202284861060518
H 9.488000260164888 0.45745303375436064 -0.4932435812740931
H 9.568590092705463 1.5443287393954688 0.9785319458399693
H 0.6034216700112962 0.028090661751318708 -0.7369484304788432
H -1.4501891405399656 2.0210536055626527 -3.8597224095243132
H -0.8663545514178997 2.7359954883361834 -2.3305278230298563
H -0.01868270137671546 1.3138893590195442 -2.99746862662042
H -3.7492329854024624 1.3554407507595987 -3.0383747153904848
