29

C 3.888839636355246 -1.1402502517864757 0.43003776414292305
C 2.6433533344241624 -1.4260579452223638 0.7884939755111858
C 1.8686179129592204 -0.3880937962085549 1.502032130305124
C 0.7742968789681767 0.18740755431670708 0.7329623635414518
C 0.812500106236331 1.4534770999274509 0.3431605623352076
C -0.21337055302478264 2.137284168183271 -0.42455985908230837
C -0.12009336809390851 3.5359190404510503 -0.827970081504711
C 0.9005570757869277 4.292514824795422 -0.5296633557700505
C -1.3181876728492388 1.4239008039307695 -0.7816980503641141
C -1.4292512703720155 0.07398516214805774 -0.4035350773942691
C -2.4745080134722195 -0.8128514496875549 -0.6727288241679246
C -2.127010569488523 -2.0020937525044866 -0.10238080422141181
C -2.9439196734275375 -3.2349134470501943 -0.13789338217091182
C -0.8065339310406738 -1.8139104807973354 0.5397197347204395
C -0.39442746340623575 -0.5830816575557707 0.36033256358402166
H 4.518489899170893 -1.8540116490477498 -0.0974927484837652
H 4.351754743526373 -0.18080464256633438 0.6411029183059098
H 2.2602178981033694 -2.406107906008241 0.5387849192505907
H 1.6626263846102902 -0.607823009814092 2.546947155797396
H 1.7057441104735922 2.0207624904709434 0.6349892683954594
H -0.9450356866565508 3.9593528092114094 -1.404340807621936
H 1.7179495285598885 3.905922942253713 0.03074760072762696
H 0.9218623887633178 5.315173899496593 -0.849626494220763
H -2.0734532093582296 1.963523329897063 -1.3586142091107114
H -3.425836282818967 -0.6941550388891908 -1.2177081418363411
H -2.8392435933519997 -3.7194116406756748 0.8643570458404979
H -2.651628697826951 -3.8886383796703035 -0.9679107878462425
H -4.027302362117517 -2.957430980152521 -0.2325389196884148
H -0.2370075506327547 -2.559588097445571 1.0845568590602355
