46

C -4.592618076547975 -1.2774842895278273 4.048672825784006
C -4.379480267667149 -2.434453186883974 3.4626826749284274
C -4.022957893934177 -2.528419018955567 2.026500534438637
C -4.951375673286036 -1.8248704763390913 1.1428929465794748
C -4.5524804089862965 -0.9223906284843743 0.25883231006003604
C -5.521611119027222 -0.24444486116738542 -0.6032211052756411
C -5.085631094770631 0.6475547419650795 -1.4568394924522736
C -3.692427814142238 1.0334974354027737 -1.627432945271424
C -2.7089048086707015 0.35092552626438 -0.7643090009209371
C -3.149390762040566 -0.5618741878646024 0.11235367924893762
C -2.2147593227013656 -1.2593697238646842 1.0025050068729717
C -2.6123282228435887 -2.15765800147328 1.8776400067241215
C -0.7919476998246224 -0.8828354930489283 0.8791544765706322
C -0.4011777222385992 0.01461957583245145 0.02133224650871293
C 0.9133853131551988 0.6185998702546246 -0.34492533247715407
C 1.4131584093267826 -0.04001252909215756 -1.546032971179724
C 2.313020428949137 0.6338295217363924 -2.232156886298261
C 3.279328192809708 1.325884295750284 -2.7969895054667
C 4.594324800945961 1.0723741717823552 -2.3127488170044597
C 4.872776869504403 0.9342384015590359 -1.0318647212504592
C 6.208177745545014 0.675873507540167 -0.5271797884363236
C 6.425500286098751 0.546780598428683 0.7693509561823859
C 7.754992052778466 0.28433676051464174 1.3446069172758044
C 0.4609099084548546 2.032950232915507 -0.6567460857651647
C -0.8386987886739785 2.0394904882866043 -0.9980430392597328
C -1.3169509011557505 0.6752327943794201 -0.9398861814910403
H -4.5092759856434155 -0.37600178973150494 3.484266445334138
H -4.852426700564427 -1.2041233451189854 5.09404534720066
H -4.464658429274817 -3.343048569344485 4.036376523330781
H -6.0319139974608875 -2.011452371664861 1.1691837806072451
H -6.5705316240312195 -0.5103793678320002 -0.49947635025099435
H -5.837856591605185 1.1473093975956536 -2.099457308795029
H -3.4220094812722066 0.8782405653354242 -2.7047266032915616
H -1.8778544264331 -2.6316902407252747 2.500323247717198
H -0.10375853509818722 -1.3892015850540491 1.5339120963077315
H 1.1745545991281983 -0.9775041476268648 -1.9641362951014496
H 2.9291592571325578 1.9826409404153864 -3.5417415716579184
H 5.407905449863322 0.9879799485006904 -3.024042824828756
H 4.06393871815591 1.0181788830654466 -0.3252504774937135
H 7.050535668003527 0.5855099470113437 -1.221859093732459
H 5.595635082690124 0.6353983019657289 1.4594085506948786
H 7.988081663839788 -0.8126220985588137 1.3556120380351095
H 7.815083499522184 0.6816847812532204 2.370106540915005
H 8.547366761317287 0.7408180859051176 0.7054103557860666
H 1.0899040588565891 2.8806228857061615 -0.6078504804287528
H -1.394712418183266 2.965264252992368 -1.2681521866524983
