25

C -3.639607604519147 0.0987352181877735 -1.1733206586666987
C -3.1153308587805766 -0.9062828697039105 -0.4865667474890469
C -1.6899701696841478 -1.2719269679868803 -0.5601946983785527
C -0.9431701693819847 -0.5668038596581921 0.5641414666457819
C -1.1326397392008845 0.8889250776237289 0.3554254177345518
C -1.667584927580994 1.6797269822408427 1.2610980491532098
C 0.5424122789537786 -0.9322361309304535 0.4621811362231939
C 1.0096662801456548 -0.4725339704830296 -0.8578485479369861
C 2.301846145774332 -0.25810442498876235 -1.0432211006020267
C 3.62234859264281 -0.32402945600999505 -0.9515837506855674
C 4.296109209906351 0.7944768414793899 -0.29410249877408595
H -3.000259326956656 0.7000984695613451 -1.8339578968609875
H -4.690608901675067 0.34315971296768066 -1.0983809633282298
H -3.761397387494759 -1.4875264373993895 0.15935353152153992
H -1.5943757463257524 -2.3478849020435795 -0.42832788769941876
H -1.311979221315998 -0.855675221017978 1.5557443763381948
H -0.8157223872194819 1.3137514765174978 -0.5834389935730803
H -1.980083687240221 1.2212847458533327 2.2047053424413616
H -1.8229688414413447 2.728988306298674 1.1550429658173815
H 0.6208773572948548 -2.038183976388879 0.5176294832089087
H 1.0860589303450556 -0.4721504151895828 1.3002875788485957
H 4.130519099608631 -1.1656160818537673 -1.3454146308687005
H 4.770321549152559 0.5244470903634464 0.6707971251529126
H 5.139219778636941 1.115375558247583 -0.9746225617033911
H 3.646319746358028 1.6899852343137234 -0.21298683043128733
