19

C 3.4103093698492364 0.4401126571927291 0.4223671991307809
C 2.5798984010459214 -0.45193973030483825 -0.03974388271698824
C 1.1921254368214655 -0.43985198657442925 0.3528412988052886
C 0.2809486424144414 -1.285503842536287 -0.05099909996259658
C -1.1052272547399442 -1.157131622745566 0.43126332066005646
C -1.5611700973356744 0.25028890715855356 0.3640192165452448
C -1.672597642934675 1.0062896598797981 1.441438753192096
C -1.8944351538417343 0.809604044867028 -0.9314192112884447
C -1.7905908300368598 0.07808929391947028 -2.007151973190721
H 3.035383208986857 1.1866136694092748 1.1044996993053906
H 4.464666248839061 0.43510522619774034 0.12736764621838528
H 2.92161077385218 -1.2042109358193007 -0.7171960401591603
H 0.5241139004284716 -2.0734328847009444 -0.7288443445953692
H -1.2320369575648054 -1.5968408669835141 1.4401415203519359
H -2.00074319516892 2.013809653909789 1.3786588441720775
H -1.4205134284178202 0.5776040729735101 2.406355033382477
H -2.2301801740760605 1.8381710614070594 -1.0017390343744996
H -1.4589293530404943 -0.9370919284266408 -1.9353585533269133
H -2.0426318950802966 0.5103155511764754 -2.9624933526191706
