23

C 3.2377981410225494 1.0313305934212544 -0.5463704250340392
C 2.7487619076400356 -0.07486668248820182 -0.0048070986164828015
C 1.879664772962797 -0.9786547271089903 -0.7692698253022943
C 0.6343158086818861 -1.366937232988142 -0.011348743685410594
C -0.14069123692982866 -0.11528123219464066 0.30567431373727316
C -0.565368574659711 0.6589873099605511 -0.8950092473319505
C -1.8917655794698416 0.2674578318957546 -1.4397896124285086
C -2.8699773053239377 0.12733686796750537 -0.5466488843744219
C -2.4906278742945274 0.3841754888810917 0.8722565240265651
C -1.3102348696107902 -0.5122864018880812 1.1655773073676412
H 3.8721685682447444 1.6717223226478282 0.04300082733450358
H 3.02368225371783 1.3200449683933173 -1.5661951601556927
H 2.991913794922264 -0.3205467142653298 1.019673133137729
H 1.6524350234159633 -0.6410901076303205 -1.779119659449376
H -0.0063562773457783335 -2.053520661638506 -0.5620273957853303
H 0.9328688471499577 -1.8383468083249235 0.9254345131681582
H 0.4945396984154501 0.5598727041748316 0.9291447742433944
H 0.20869230890901647 0.7900128821059422 -1.6415805445732068
H -2.059882942701501 0.10421981754881911 -2.4986419296516544
H -3.8754374728210674 -0.15320989511409 -0.8187167006961842
H -3.318635111084503 0.21589710929429973 1.5778911993289824
H -2.1018808235338433 1.4402936342804327 0.9300617178037979
H -1.0459830573072797 -0.5166110669302787 2.2437191631676865
