16

C 3.7109792936093675 0.48833224283167403 0.10452015883685677
C 2.428649945412986 0.4866674633775384 -0.20696586758818594
C 1.8024724596158503 -0.7467913170052036 -0.6585132310397145
C 0.5514638795437709 -0.9863132685791687 -0.28814256520473575
C -0.6434772364230698 -0.9379040045087861 0.22181637037851767
C -1.6946390913593385 -0.20684057785385138 -0.5030882615768923
C -2.881263861210176 0.14153489695155763 0.38788131168746603
H 4.279522799169752 -0.44362431778320904 0.016052183909450825
H 4.206711253200496 1.4058403923828706 0.44768088245615834
H 1.8904318857008424 1.416862944585043 -0.11157205137364386
H -0.8306014011940824 -1.423872514454637 1.1504234079378894
H -1.3026995440476776 0.7887213138595158 -0.8622316360557566
H -2.0400464766209567 -0.7616592699530126 -1.4087158851190322
H -3.4965286190380045 0.8626536925875884 -0.21476483284628806
H -2.52144415846511 0.670942842847101 1.269702839521057
H -3.4595311278945795 -0.7545505192850895 0.6559171760768339
