22

C -3.794899459256429 0.2617058700026257 -1.9796572260913485
C -3.2740859682700205 0.7455967528156909 -0.862684794901667
C -3.3609222255324367 0.0037625894215854608 0.4198143913827813
C -1.9969591050901978 -0.24373261996662798 0.9072272021925283
C -0.9904124626055753 -0.27967064537453823 0.06661851453032391
C 0.3515905082603053 -0.525957720224307 0.5689385508979744
C 1.4074968537321242 -0.5725544756354194 -0.24010650492441332
C 2.7520017044668283 -0.8277368929671959 0.33215093992238404
C 3.658206463536013 0.337062621862536 0.04307224677370859
C 4.545268715593029 0.7718213942844585 0.9012300495957436
H -3.739125164225914 0.7936109995833982 -2.926549578833608
H -4.2889522873176125 -0.6923449195330676 -1.9394782365677352
H -2.7569656341376514 1.7094813375135234 -0.8275831579824937
H -3.922059817177862 -0.937471366518427 0.25165914524497557
H -1.8138417087908356 -0.39692492765505244 1.9541246164687474
H -1.120719644305824 -0.13113278383636381 -1.0018866147399814
H 0.5063205090736826 -0.6788289193740703 1.6452799072949111
H 1.2378054231608606 -0.4205881178898475 -1.2921451066121232
H 3.1817509500570464 -1.678165978922556 -0.27308786420338604
H 3.5409715368594266 0.8013105614338767 -0.9142690002221626
H 4.709922378240915 0.34588969882569187 1.8800551177026559
H 5.167608433731893 1.6148675421547372 0.6329934495644175
