48

C 8.284831468388761 0.1536742060646217 1.3501679517750778
C 7.16834685406643 -0.3542834448508714 0.848107114706542
C 5.874187903872058 0.06992096846418504 1.4412674686798939
C 5.297212583357102 1.1407123246287934 0.5106102382322836
C 4.923978045822198 -1.0746265619447375 1.405029662746065
C 5.377040744853613 -2.4852060356625554 1.5329454434547776
C 3.631144112237993 -0.8818728792957928 1.2567519190112548
C 2.4398253433628976 -0.5083544639850766 0.8928732624030737
C 1.1238017840841215 -0.5357320159547033 0.7620915697274793
C 0.5116874761547667 -1.1809473099397934 -0.4053982738689434
C 0.23193218078533484 -2.60354045381331 -0.22427732038186238
C -1.0683396028222822 -2.8426885401521362 -0.28274602823421285
C -1.7740108332033768 -1.5938803118022973 -0.5092336434078034
C -0.85660625735252 -0.5774292475056514 -0.5877399665633408
C -1.2696976765804668 0.7159197971725765 -0.799763240371403
C -2.618960272168863 1.0258522402730952 -0.939277555693522
C -3.0580528819635497 2.2995101488939427 -1.1503573604286703
C -4.38377010124808 2.6744513015284705 -1.2973778914013072
C -4.7655844449232765 4.060938007368491 -1.520329771560682
C -5.98904511007913 4.488907918641352 -1.6675777652552064
C -5.30336942387829 1.6542039140877882 -1.2184901729186446
C -4.902551152014381 0.35155117239835143 -1.006030000329177
C -3.5650554564018773 0.004348601767256824 -0.8620923241787669
C -3.130180705357172 -1.2804372928596568 -0.6497346481463897
C -4.07633374903314 -2.429657454315391 -0.554521753931646
C -5.461954426067813 -1.9852598703435542 -0.715598657662017
C -5.859496100861315 -0.7516120391006582 -0.9180771323365644
H 9.266293824028532 -0.12001817138278909 0.9560275010859737
H 8.267826610591099 0.8602605582291623 2.171163405061868
H 7.141105116491556 -1.0596822421071632 0.03194299224606658
H 4.81427873835837 0.6012023136651876 -0.318795619242032
H 4.507527540883281 1.6800650315050134 1.0730508654408137
H 6.108694529507073 1.8261980247817873 0.1591869533554375
H 4.611699005170716 -3.061064178275862 2.104396817752631
H 5.4930152879074114 -2.903182336508785 0.49016175999472655
H 6.374510518518366 -2.5639867948161537 1.9995729762220036
H 0.5104155513683382 -0.07800870529322101 1.5243555492982284
H 0.9775652373881941 -3.368588253458047 -0.06329977146161095
H -1.5422207433075106 -3.814348210918425 -0.17909938939390935
H -0.5783542113925328 1.535348867191987 -0.8664739688124486
H -2.3202040246062547 3.0888603584953813 -1.209520762503136
H -3.9370123602446396 4.784122568631546 -1.5637161753596482
H -6.813264019370219 3.8025682017142413 -1.6290869988266634
H -6.246962513909547 5.5274502777409085 -1.832587287657064
H -6.350937640280806 1.8859644590010451 -1.3255506125558425
H -3.901226116455677 -2.906298435244837 0.42454635539251256
H -6.238803646666851 -2.758508393139704 -0.6614695913866621
H -6.9249269871714345 -0.5128176196660177 -1.0273972268901004
