19

C 2.5252271467281124 -0.3014620568023697 1.1145320285722302
C 1.61485866239197 -0.8952224897296547 0.3623168216283329
C 1.163179445910451 -0.2195828406226573 -0.8854996590941026
C 0.8106014022997472 1.181072479294621 -0.5334021225865562
C -0.443126334475201 1.4989272640615887 -0.32022687615132617
C -1.524339992877662 0.5100821099190395 -0.417781233919504
C -2.1224217085253123 0.10746285185019261 0.8874896484537915
C -1.2436846201143021 -0.6092941750103187 -1.3241300388242516
C 0.03929424427070544 -0.9299511327702299 -1.524669767463199
H 2.8510292792505556 -0.7935040812849431 2.01882072195401
H 2.9501033116134527 0.66926584136604 0.8403456235283155
H 1.2233669682658144 -1.8494783345307955 0.6688698037419182
H 1.5671427357201484 1.9659434902147985 -0.4444634392081966
H -0.7117669420644841 2.527396903994611 -0.06057769753089075
H -2.9730522795919296 -0.5634867554065491 0.6871301724613315
H -1.4110309708566136 -0.4499230040141616 1.5278678455003423
H -2.503416162822546 1.0392855146853262 1.3903714452222515
H -2.067541987487606 -1.133240053627858 -1.7953196690726052
H 0.2555778023647483 -1.7542915315866838 -2.1916736072118077
