16

C -2.9418627675167732 0.41911441400083127 0.3005961981751459
C -1.9287763395547213 0.1091238445262639 -0.48694556270181205
C -0.9789886224312185 -0.9640223086822306 -0.14880327730425974
C 0.41918917508597847 -0.41300564868451983 -0.11015017569022409
C 0.7242516763582815 0.8670122541407614 -0.17392699247434332
C 2.1896673952430463 1.0068036886338376 -0.1061615589166381
C 2.678960309466792 -0.3729027199897181 0.005284882887426759
C 1.6420864614723731 -1.1818899046250844 0.001542650252593236
H -3.0694182123643934 -0.13378905940607005 1.214046863333473
H -3.641140329532264 1.1990887477753767 0.0655767696895506
H -1.753994204374783 0.6455342661315443 -1.4343816416056157
H -1.2220471051480295 -1.5217631881614988 0.7511451729541263
H -0.032727173303531164 1.6519647665412045 -0.2623055556776697
H 2.5385029540316095 1.6774356804329829 0.6972805502911928
H 3.710261112527062 -0.7120681378692908 0.0802365058605191
H 1.6660356700405674 -2.2766366947644063 0.07096187882044719
