17

C 1.8279107495649727 -0.21330347215288434 2.14383019754124
C 1.0640904910002953 -1.232225287632266 1.7833756791413875
C -0.14223308553558553 -1.0809795252144632 0.9711150283263892
C -0.8017817628564972 0.18980603430270748 0.9205806113043269
C -0.7536677220912319 0.2587260499600253 -0.3634571974814501
C -1.2128990075281965 1.2630708025520516 -1.351009069775915
C -1.0188098351223174 1.05046419710119 -2.6219399378541346
C -0.07238379140036362 -1.0342570996520604 -0.46797560583676595
H 1.5453475488909805 0.7751437403565092 1.822032156288457
H 2.716841604320634 -0.33983310010550155 2.7444658211940314
H 1.3483997137983585 -2.228575510103853 2.107426083462555
H -1.2206650855515293 0.8993625155717101 1.6656919927834126
H -1.6912208283316648 2.137150834407325 -1.0086977709828593
H -0.5342848128399683 0.16968467919059615 -3.0054382991576185
H -1.353180168688299 1.7817014512104488 -3.3408633707853417
H 0.9273511777134708 -0.9183004846659505 -0.9614244472537355
H -0.628815185343003 -1.8209362155028623 -1.037711870914708
