20

C -3.16802412957258 0.9395777113239925 -0.5552577833047557
C -2.5970796214318748 -0.21106314576886964 -0.1995576789393212
C -1.4151058641439798 -0.2257406205539066 0.681068221691269
C -0.8389905981350295 -1.56577980562158 0.7718513531216956
C 0.4509470952019496 -1.801257996503511 0.6133749662840376
C 1.3786581911013494 -0.712438169482233 0.33478171320629607
C 2.6923782780932553 -0.657445772343263 0.13481969164558688
C 3.0711917090730316 0.7306433741927659 -0.10238573687532311
C 1.9876076228073272 1.499655787932038 -0.0440024031072816
C 0.8510039916556955 0.6326092292069823 0.23622564597934453
C -0.45228723170888696 0.836118398973847 0.40084285684242593
H -2.803404314015481 1.8938392316172152 -0.2251701960829378
H -4.037835762056023 0.9478534079963666 -1.2034794899646204
H -3.01492416837009 -1.1412889965817368 -0.5678492750996227
H -1.5099753182775708 -2.391081379781485 0.9782886186578842
H 0.8807212962361958 -2.7932608982049967 0.6801097386205146
H 3.3790154762073192 -1.5179536738336394 0.14665774063352396
H 4.05659064459521 1.130991483292394 -0.299360343335837
H 1.8985695414353911 2.5588312102150015 -0.16953545946593837
H -0.8090568386951872 1.8471906239245737 0.3209217028699428
