12

C 2.4910676564779037 0.5817527126524394 -0.6736932487305266
C 1.5062972276961653 -0.2534954639786388 -0.40157171300395056
C 0.2883361595964463 -0.19584797973181994 -1.2476072427819798
C -0.9528394833179413 -0.12431822591286447 -0.485569192765886
C -2.145776826646245 0.596168213074705 -0.16835671850491915
C -1.9258573016292677 -0.6827195203838323 0.5032933158977201
H 2.402107349210489 1.2819191440868258 -1.4900934632953247
H 3.392300519754903 0.5585411082170253 -0.06875316178759174
H 1.631091546417301 -0.9382436664671748 0.4211576346895505
H -2.6500551771426464 1.4963459886897377 -0.4137271583227559
H -2.4596561243783674 -1.6063441575725081 0.18692718813782155
H -1.5770155460386759 -0.7137581526738898 1.5664652889536903
