25

C -5.481927254481206 0.516512172944174 0.9616992522883316
C -4.859223244131941 -0.10541262861743908 -0.016781100973139874
C -3.7153098278810175 -0.9840681620376709 0.2986322804162789
C -2.433651227486212 -0.1950252270632373 0.4699877394446151
C -1.312461557227147 -1.0984373783997028 0.21648942971632654
C -0.12941020568204706 -0.5460645606962796 0.17901697762600335
C 1.0084784882721662 0.0938874936780726 0.10554220286744809
C 1.3421692254287625 0.5836944169119952 -1.199184323961189
C 2.4808363417632355 0.235852417601607 -1.7307329816343058
C 3.407422560895157 -0.6431583948858256 -1.006146230593221
C 4.247484367699805 0.08609062902290096 -0.04384947918567055
C 5.185335076200102 -0.5610433455927715 0.6189743001317365
H -5.165353414491046 0.39060755817337206 1.9880559163212406
H -6.319010007888991 1.1624953997747391 0.7551576885057434
H -5.1788932447495055 0.024269767820182555 -1.032776659932908
H -2.4319702333703 0.7220760149777278 -0.15332022088236916
H -2.395805566200507 0.10993087505742533 1.5494780363329475
H -1.3101886315824647 -2.1405403655393402 0.05563749522165049
H 1.530037273048328 0.16594876904114386 1.0183520724247024
H 0.6534011323964087 1.2452534693015724 -1.753561402815403
H 2.7421575548361212 0.5932815569852302 -2.701730872645454
H 2.855924783462187 -1.5013521447261629 -0.522842770624511
H 4.087795920777956 1.1452886709243322 0.11056427281597726
H 5.38850320933683 -1.611928075700838 0.5061169045001528
H 5.803658481055711 -0.02434982817108694 1.3272214746349325
