21

C -1.6132515645909804 0.08772978405647998 1.6326850261000336
C -1.160296374177562 0.8050740887326893 0.619088939566884
C -0.6757573668912794 0.24573580432095585 -0.646418158810153
C -1.7051798115825683 -0.037084371243504166 -1.6406421595885439
C -2.9791297113097337 -0.19107959096407195 -1.3213239373465382
C 0.25112166365472627 -0.9261528458462016 -0.4802050367091168
C 1.469485404850061 -0.6034404553957613 0.2858746906088308
C 2.3373135456105714 0.24267032323964574 -0.22815571074630278
C 3.599015118904043 0.6380226734352349 0.45999165851329277
H -1.960693369436284 0.5304166074007592 2.5458292426551545
H -1.636658707214452 -0.9842963294194494 1.5437142258147827
H -1.1333721231993574 1.9073141669598366 0.7035719660798415
H -1.4215731373816085 -0.1255290468579815 -2.6821517945957365
H -3.7439325398288767 -0.4004845744625436 -2.0542996726984235
H -3.2645685673814144 -0.10369019673565565 -0.2858262959960778
H -0.27258308274674586 -1.8297050175436045 -0.07811838098482665
H 0.5823988764458465 -1.21665993726015 -1.5135609812364363
H 1.6552711536317652 -1.0448367887868026 1.2463233968336407
H 4.1468675458972015 1.3820548186915407 -0.1297808479281658
H 4.2231126345692145 -0.2731608663909938 0.599554583671002
H 3.3024104121773883 1.0992820942126103 1.4238492467969488
