19

C 3.9085659094652003 0.4766828941120702 0.37437908667479447
C 2.9845375442341546 0.9761604089387799 -0.4218804534646437
C 1.8811593647808746 0.13074260769672696 -0.9231666969288895
C 1.1285553858198738 -0.3914373790821378 0.20687522686769735
C -0.11242718038714869 0.015432125252334465 0.3078044486449135
C -1.3701884076612625 0.3980581575877377 0.26777504226964255
C -2.273892083488426 -0.4463947464681573 -0.5051372592169825
C -3.6465334940752445 -0.4110999048765057 0.17684862040914892
H 3.9073612873510597 -0.5722620025600116 0.700577282583662
H 4.7368305130609425 1.0640451540320823 0.7653832360951275
H 3.027886962657061 2.0070981329408744 -0.7132388323605302
H 2.3138481152206953 -0.7034511747336016 -1.5322678117266444
H 1.4148658072400921 -1.0554745045655263 0.9736251271723156
H -1.5600415397540173 1.2830542238982667 0.809872837215044
H -2.373955510623263 -0.0999944445492303 -1.5741883385255442
H -1.9521034815573899 -1.493973807960425 -0.48706847766981226
H -3.946275595083013 -1.3890880989731094 0.5596271272157636
H -3.648790626127815 0.29058315980979854 1.0390741781659925
H -4.419402971072289 -0.07868080049991398 -0.5354133678812353
