28

C 5.214256432196722 0.25709752921172113 0.035484148252328214
C 4.286667389345237 -0.6713496469904925 -0.17063223438377376
C 2.9167233636948686 -0.43496446945542255 0.21612908715449095
C 2.2863228754700677 -1.3329127420951876 1.131925307349159
C 0.975614910780406 -1.3525065931933968 1.2784953808023973
C 0.10402980983643532 -0.4424102183546392 0.4978082638090821
C -1.1742928548951712 -0.5208040528724592 0.6971334852986689
C -2.228869437601834 0.23869697521561506 0.07755649154283245
C -1.9850534519811827 1.1880813356888051 -0.8494072929039108
C -3.111926628999046 1.9344305622432139 -1.4494206028670193
C -3.624882015972104 0.015014433178888422 0.42669272449340057
C -4.017041728968304 -0.8542896705611546 1.2919506604028799
C 0.7821955563577704 0.4494253620289118 -0.41672555912658693
C 2.1117186375268457 0.4518945997705263 -0.5488343212281654
H 4.965834496518893 1.2078009345202385 0.49592783257080086
H 6.262345554820149 0.12089069832653504 -0.24121630546860043
H 4.580481394233238 -1.606257837727131 -0.6337372902267672
H 2.9048745435660446 -2.0130076327763167 1.7185514868593297
H 0.5265423601801438 -2.0624939180302877 1.9977437738305077
H -1.5038826019202276 -1.2693003344734057 1.4413105218851079
H -2.696826783726605 2.576788134777523 -2.2611451070497086
H -3.700384311506787 2.511780353877424 -0.7170225167468497
H -3.7819129961445968 1.172274311457177 -1.9375137615749551
H -4.389280381265626 0.6167738055639894 -0.07107366347173638
H -5.086326266575762 -0.9898547636943282 1.5253557530172905
H -3.3643971851178236 -1.49691986258958 1.8395180701291758
H 0.21914027039077041 1.1546906595318935 -1.0326451208093437
H 2.5283290497570636 1.1514320474213982 -1.2548577114020802
