17

C 2.9175906790464 -0.2561524164001006 0.8130607682478925
C 1.9608547785568016 -0.19453703756852325 -0.10277235040235806
C 0.6916913826058195 -0.9569812786427888 0.052382866873788146
C -0.41599387529748255 -0.15580935648908062 -0.5828507579391597
C -1.7255247821045239 -0.8060084557224272 -0.49446832609075175
C -2.567254012673021 0.020307476774935763 0.09520927077003159
C -1.855754391073058 1.245655462952992 0.4206682067659756
C -0.6014902433824204 1.158310677287168 0.03190363446877831
H 3.836513191530043 0.3025470913886693 0.6899043662965388
H 2.75036061746443 -0.8772939854426489 1.6785399434972974
H 2.065700478484807 0.4194467183019745 -1.0098327703374483
H 0.8359765597611512 -1.9402360379274923 -0.41250879804367263
H -0.15946638751758632 -0.054792067012588715 -1.6676913441190622
H -2.029343416457534 -1.7996632475107612 -0.834912698900091
H -3.6314896833448826 -0.17576199730921815 0.3093704081642818
H -2.249717227428981 2.1417309386496255 0.914790656657378
H 0.17734633189669774 1.9292375147335885 0.1438800932228529
