27

C -3.6269024945509547 -0.4659793716735138 -3.1995012032908328
C -2.480504657500724 -0.3303883873989562 -2.5626710741097747
C -1.2736169523018404 -0.28802880105157697 -3.369839204954304
C -0.11074008902467626 -0.1401671523900891 -2.773488933963288
C 0.03879095175352596 -0.005299635450961995 -1.275508991272475
C -0.2044513903583994 1.5049054608475403 -1.0364879080234195
C 1.4191752596734757 -0.3604681957319968 -0.9235155377210336
C 1.7536317608847494 -0.8774802794494105 0.2516992840830263
C 0.6554057650465752 -1.095219880164607 1.2458847495056034
C 1.3478034217662407 -0.9043268422218709 2.653049329552865
C 0.8336405496264975 -0.044578412446940344 3.379108869761803
C 1.2706163299977833 0.3393624803348151 4.724865316156555
H -3.611638207918626 -0.5367814806282791 -4.277137380681501
H -4.528532095662362 -0.5060699692988424 -2.628037623187576
H -2.454063456613612 -0.2572181200408924 -1.4925093257094786
H 0.8117639130826806 -0.11019224457947799 -3.334705892250634
H -0.3929919179962494 1.723960046133695 0.023443627096344184
H 0.6244643198283822 2.110139486081992 -1.415329299135222
H -1.1445491748086167 1.7115737342981234 -1.6342117917494434
H 2.2042772546196105 -0.17963419824475824 -1.6856746007991321
H 2.7804654086817298 -1.118156266426844 0.46211717474558317
H -0.14486311498559268 -0.36892680420197893 1.1459406619344723
H 2.1955011140248017 -1.644757337612839 2.624374037890044
H -0.06825557366681714 0.4830461379195382 2.9698374137129226
H 0.34985517306401426 0.6496468655573815 5.302460715717726
H 2.002497337403999 1.179496775070308 4.692401105727505
H 1.7532205659725775 -0.4684576071996565 5.29463182458826
