17

C 1.5631728243727128 -2.2240587520747566 0.7777265157326096
C 0.8808142289088414 -1.0864050687279099 0.8562318894355668
C 0.719033013244648 -0.1807296928794273 -0.3174069723005514
C 1.1753754324060346 1.1741927414831959 0.05865270007019836
C 0.3678315624165487 2.0448159240003494 0.6295206800523856
C -0.6749700917717348 -0.12721209614131634 -0.7960288477160862
C -1.6698080535838082 -0.7265790917321799 -1.4907411758458513
C -1.9819539548430782 0.5720572475710012 -0.8852472130608928
H 2.0027126104647497 -2.471964770435379 -0.18194489217762908
H 1.6807066014333183 -2.8741315192157573 1.6155635752823063
H 0.43220602551251497 -0.831189242352241 1.8315817232708071
H 2.2176242151182155 1.4373693672949497 -0.15352550802520482
H 0.705334860697174 3.036139212862065 0.9035799375176434
H -0.6577795308046229 1.7564034587622872 0.827160719400352
H -2.035737629341811 -1.562780989949479 -2.087334378956935
H -2.62848111183658 0.6401530621553899 -0.0007700003030886466
H -2.0960810023928027 1.423920209379137 -1.5870187523756025
