23

C 4.446879309050128 -0.7338851706017284 1.5124710830696326
C 3.2343221736870857 -1.0037891241291215 1.0726810219991085
C 2.126615902400636 0.0013369906075336245 1.247408476107225
C 1.2066170484257768 -0.19098249142556928 0.10874844625406566
C 1.4295201261554866 0.529531962395171 -1.1462199796316872
C 0.19853511205285237 -1.0167262550649951 0.25810594729607944
C -0.7106788980283594 -1.227609803499172 -0.8199281931911612
C -1.795484986911208 -0.46498807072061693 -0.8014866786761139
C -2.8460398511527067 0.28954980984842776 -0.6840005209045539
C -3.9183926071691944 -0.2705630691642277 0.09402440154370213
C -5.020844460024906 0.4622534395056388 0.24650666516228906
H 5.229844241837636 -1.4625740745003661 1.3805694178557046
H 4.6316362841695415 0.20737883065173995 1.9940599688698644
H 3.0227907364347577 -1.9452059959402364 0.5840662443495251
H 2.618937608988688 1.0092383054640355 1.1620183151156798
H 0.7803779079090395 1.4277419864855667 -1.267654293666047
H 2.4729956731137737 0.886351926465675 -1.2752168815670228
H 1.227294589735903 -0.10715776032310907 -2.050328721845563
H -0.6891602927888887 -1.8819268191742253 -1.6401505869663013
H -2.791009793177534 1.228279363697686 -1.1723751474936874
H -3.8916674751185245 -1.2362485183132992 0.5592262670151145
H -5.132548132152661 1.4493954200689916 -0.18964371563907634
H -5.830540217436845 0.053184143172780134 0.8271184649432611
