20

C -3.790098931522439 1.2059872855758758 -0.34883790323701963
C -2.7174005466083724 0.4798134004245659 -0.637928272539056
C -1.9712137996999781 -0.1508607725331337 0.507646751957853
C -1.4956152630531463 -1.4749822501930632 0.049981867231041754
C -0.18248135415674083 -1.4723190043896586 -0.044539403699231817
C 0.3007406227099583 -0.16108822625627411 0.33936821970023656
C 1.7115964521289038 0.2814080295722612 0.3783056159297517
C 2.6556864684004418 -0.578874821480191 0.03486223283995792
C 4.072627592006357 -0.212022259676508 0.04918206261505663
C -0.7110693312476967 0.6063389730618375 0.6580845798771539
H -4.367441214495643 1.6844376330367585 -1.1331638799907662
H -4.127884331945425 1.349115365317883 0.6597752108920936
H -2.3757296434560566 0.33494348178886735 -1.657355794801719
H -2.111256961125613 -2.3294032592128273 -0.17832728998083452
H 0.467580261405833 -2.3082853496272797 -0.3588846633610648
H 1.9509030001939247 1.2888397147378305 0.6828350579824961
H 4.176373396856686 0.8167425621328667 -0.38151065343957974
H 4.504135733525223 -0.14726108260339268 1.0830921015837514
H 4.672450665763244 -0.8783518970234353 -0.6097121318301513
H -0.6619028156792179 1.6658224773467885 0.9930744904525348
