24

C -4.466699184581226 0.5482850113671466 0.3053185834270705
C -4.114127125161444 0.5111559973183157 -0.9529221863947817
C -3.1935481303110738 -0.4714097250449575 -1.5114484729205466
C -2.1276778867920516 -0.828551417985913 -0.7990826868076074
C -1.241136324697096 -0.9157999555321682 0.15329194224425782
C -1.4400802329745648 -1.9106110582426317 1.2150307957926036
C -0.08168143262719679 -0.012444602196537263 0.13455348598600822
C 0.9273483892586382 -0.4606750879762072 -0.8133612136031875
C 1.995327026888734 0.31498985116906025 -0.9238292514536758
C 3.054238900593234 1.068701546549623 -0.8791033432010656
C 4.069989229579506 0.7514523688137572 0.0686475652253159
C 5.194421792159568 1.4859900476020542 0.17310340702982335
H -4.092429565394849 -0.16361687349632037 1.040219859587957
H -5.152765371145027 1.3030399968150417 0.6522825595649364
H -4.522341314405358 1.2463666588272895 -1.6274213139761384
H -1.049905701548329 -2.9097860956132884 0.8727586821755704
H -2.5025926394816387 -2.0457950995238248 1.4971207972311324
H -0.8357148395190509 -1.6748740098942732 2.1373429981024845
H 0.3691688071569412 0.12662270648234597 1.154971224586651
H 0.9670480345206596 -1.3065660684279354 -1.4383797630389705
H 3.0342554093883876 1.8629614574996776 -1.5809307482475081
H 3.9650132236488944 -0.09262259952403752 0.7332965153343278
H 5.304904872946875 2.341671321951302 -0.49836340263843043
H 5.938984062496814 1.2315156290623857 0.8869039659936964
