18

C 3.7786425477176766 0.46827478548420415 0.05641769068571983
C 2.8539031935080144 1.3584574519175892 0.31698779252154713
C 1.7959071937613849 1.0482219470022227 1.3037154337417198
C 1.0180197823401667 0.010497171990720658 1.0546908229101808
C 0.5180514166499867 -1.1082983683217016 0.5612867391436294
C -0.36149169119573676 -1.164421751672156 -0.56078833497168
C -1.633255904516002 -1.014396738689932 -0.2834649987715214
C -2.8751212178767362 -0.7799235807071084 0.04720032870424746
C -3.2734237453599486 0.626422757760996 0.05780811893859431
H 3.809521471720391 -0.4870470821041149 0.5274159320226192
H 4.545814669212148 0.7079584465568233 -0.6667174684994367
H 2.8327628725703953 2.3180612463774177 -0.16382629620033712
H 0.8127734260407092 -2.0161813635120236 1.0537275928881664
H -0.15692746785297537 -1.3062289674256993 -1.583629965659098
H -3.437235567099776 -1.6415877309475888 0.2676503799921263
H -4.347995030559056 0.6994409125930776 0.3653301918009844
H -2.6136684079482655 1.2964704249885584 0.6144464311693555
H -3.2662775411123963 0.984280438708702 -1.012046926970267
