33

C -4.367848442983599 2.666302568992681 -1.0611341281221387
C -4.384162307703415 1.417939529206816 -0.6326559489892004
C -3.342973917183425 0.986439227615814 0.3359875510578486
C -2.29427380133328 0.19930667378860387 -0.36095314657472277
C -1.2005869806085687 -0.15216803303800586 0.28063299591347596
C -0.15524878390080257 -0.9417690888835554 -0.4286262696779776
C 1.1122478004549656 -0.17444057545191397 -0.3187315023513446
C 1.4985371045913247 0.2668204387574805 0.8843514854252598
C 2.726177651665319 1.0225503573973354 1.0614397528021624
C 3.484810311003779 1.2837196764149172 0.010132211989511065
C 4.709672445944375 2.038903266122995 0.19338000675674502
C 5.479375067467932 2.310585825580391 -0.8354961465196155
C 0.08263238623204315 -2.276618664604174 0.25230186218967454
C -1.137955155812307 -3.112728635845061 0.29472007259961325
C -1.169636911032356 -4.304486850538674 -0.28220480553431315
H -5.0994932264606 3.0456095379799173 -1.7687036711283042
H -3.6142196387718397 3.3515521088999156 -0.7126320417973919
H -5.118264836741728 0.6900799357523526 -0.9507882513564971
H -3.876201804218884 0.37126529820286114 1.1074720332732015
H -2.4079301005846454 -0.09562588163280232 -1.3938654086998998
H -1.09771078417815 0.1494554172613069 1.3166085715904494
H -0.4408567563451646 -1.1050884377605623 -1.4664593306296851
H 0.8929532243858405 0.06355488141961335 1.7531760424674838
H 3.0015347107976735 1.3606338452133617 2.0517361725536847
H 3.1604650256864133 0.9209632409759835 -0.9563178554892756
H 4.994169638730576 2.3791480251767085 1.1655374114081858
H 5.250290396868492 1.9954081200768816 -1.850627276601967
H 6.401137673045923 2.8749992790272625 -0.7195461156908537
H 0.8615676602531737 -2.803017517658509 -0.3327618042846856
H 0.46840376023390495 -2.0797379883513862 1.275552556023587
H -2.018584174580815 -2.7453533688928524 0.8048193312973002
H -2.072960411529116 -4.893097801062439 -0.23590608591697523
H -0.32506682339290555 -4.71110441014305 -0.7982358434252274
