19

C 2.3187868255259345 1.2839947341775662 -0.16097907473617337
C 2.3521652151004457 -0.0298915825765244 -0.017063892561485335
C 1.3387600981779266 -0.8559418144755041 -0.6768190909173072
C 0.15840675619677907 -1.1687362784523945 0.18887613649197374
C -0.8906247806655389 -2.0238185111037392 -0.4941293358837527
C -1.1473561997238921 -0.5848292974390253 -0.04328039570978642
C -2.0761318776861817 0.3643025931665185 -0.008280732932004424
C -1.7100784521947126 1.666828822363663 0.6065052855775132
H 1.563915125004403 1.7958927016032886 -0.7551187543759316
H 3.05191226036557 1.9402947600572864 0.31095517445443055
H 3.122370673182804 -0.4822001544987845 0.5827808831352761
H 1.7416148573123444 -1.7217658740635853 -1.22305916775451
H 0.38217297754369 -1.4384865010556538 1.2514839619345488
H -0.8968090436404584 -2.096401846101614 -1.5891989042997772
H -1.3556587823473263 -2.819294701508417 0.1214991259098263
H -3.082405908344814 0.2618844568949829 -0.39427824254060817
H -1.2451167586913132 2.2867254545120015 -0.18999887621827724
H -1.0138739523878102 1.455156572576039 1.445081696488338
H -2.6120490327277963 2.166286465923943 1.0450242039377
