18

C 3.698677164796038 0.1315140828421795 0.38847199377675484
C 2.6044437563800513 0.8630067022143516 0.5541163831827562
C 1.5023794250900182 0.7814039971080812 -0.4210130284145689
C 0.5250438468936379 -0.26776665141252076 -0.10286218802938399
C -0.7060631239342405 -0.2584564113985969 -0.6003691023371144
C -1.6997472356254941 -1.3058108945757885 -0.2899770806342313
C -3.060458748399237 -0.7362192235610687 -0.09658844219894121
C -3.305359877387838 0.544757327455325 0.0227389136951434
H 4.530897054422974 0.15290975140065427 1.0687045288668298
H 3.793931689814125 -0.5387071826677853 -0.4723646318158134
H 2.536134786155631 1.5124226321975984 1.406953847652107
H 1.8087588017982927 0.8351151890835139 -1.4652753045634808
H 0.7883334337841865 -1.087030064203789 0.5551322577964118
H -0.9859103832116607 0.5629623608763884 -1.2664258762103155
H -1.389465644267471 -1.907863705839199 0.5863808092869564
H -3.8770351008489614 -1.4376382604684534 -0.055355682762798404
H -2.455512601569746 1.2377160258212654 -0.022831267141348085
H -4.309047243890472 0.9176843251277921 0.16199698544466917
