48

C 8.187611610572313 1.0324623626339688 -0.213098311347197
C 7.897793584660558 -0.24103839632991478 -0.4445829141439311
C 6.865414932204594 -0.8678127173475375 0.42801076226006207
C 5.934807507942603 -1.7163920633415006 -0.3679179937529229
C 4.837411959648254 -2.153325383144824 0.2233895382382315
C 4.5128689592977 -1.8258227429335085 1.6377353067031428
C 3.226652071713809 -1.0925392407068393 1.7506419996662663
C 2.3542293201576325 -1.2324287652019916 0.773385081762943
C 1.3799318014665096 -1.2847990281864778 -0.05666804565811182
C 0.33288753786398506 -1.416505393512267 -0.8084078225079118
C -0.9020138102749746 -0.7170367289136006 -0.5100109518636555
C -0.890491353747239 0.6273931825574535 -0.7585342595220235
C -2.0155746098109995 1.420404813622039 -0.5148573745564438
C -2.275034483068974 2.7693805208831423 -0.6726567416020637
C -1.3473995152119604 3.84402640327804 -1.185594911986584
C -3.553710186424732 2.993290231725194 -0.27704930273587886
C -4.1135373386254 1.6893419912864303 0.15217026760911329
C -3.2007348838427494 0.7484027981726167 0.012413582158576776
C -3.1695907218934085 -0.7021278034306215 0.26611604011646445
C -2.070749235603148 -1.3947318176030943 0.01482296393975252
C -4.235558846862532 -1.5688726735083363 0.7911446880751664
C -5.5305771106275925 -0.8483415743172972 0.8599321480149857
C -6.531562648454445 -1.4693205528621893 0.2547419943247131
C -5.787893252514313 0.439202725403318 1.5132176301256461
C -5.527823007928327 1.6248256629328206 0.6460820218827713
H 8.928652034993698 1.5444242875110563 -0.8125021844420607
H 7.7163340500333355 1.6261694721196025 0.5671656557946871
H 8.406968009070853 -0.7500054699095878 -1.2300859771662043
H 7.2811282414709435 -1.3742877992875484 1.3033762327048364
H 6.149470151319174 -1.9660992951595506 -1.3932000861968128
H 4.144691445227263 -2.774670516327554 -0.34109975886267496
H 4.408704817456343 -2.7768535477803984 2.22357390745849
H 5.371377901687206 -1.224772189961944 2.056624721195184
H 3.053648115871218 -0.484753818484931 2.6078119277278837
H 0.4238017629983085 -2.080793476382824 -1.6798769598104137
H 0.034526268181987854 1.0670358803923545 -1.1574482289803731
H -0.3077955863032582 3.525877210020752 -0.8968926964151953
H -1.6044938345904594 4.829762488448964 -0.7977514467714522
H -1.3874707942339495 3.755412149677983 -2.2901672802299333
H -4.0167376454347705 3.9632977203143014 -0.2961197903521623
H -1.9985643788336536 -2.461432027169913 0.18428069710047865
H -3.954937884626279 -1.849176570832415 1.8278965909742524
H -4.331013273604726 -2.5244486158859054 0.2324976587422262
H -7.540425758727005 -1.0546174218639102 0.22638497969185886
H -6.385404515691402 -2.421358062079025 -0.2396869762342076
H -6.808205768507338 0.5483473733720332 1.9298328042849315
H -5.720833430113987 2.539527845292369 1.2369517934741932
H -6.24077820827674 1.6857785728245243 -0.22687689544313785
