19

C -4.745336157786759 0.36440008712662064 0.9286874691979873
C -3.8044748388215086 -0.04732107661665298 0.0935096610996456
C -2.4212636880679175 0.14011191030259623 0.44969141129947304
C -1.3979299595997194 -0.21573126110747298 -0.27491049723782984
C -0.03573445392736628 0.05428709397673498 0.2465701836975358
C 0.9764716846324287 0.06861206379560815 -0.7964281784245604
C 2.203652492788113 0.360361273258691 -0.41172292808268524
C 3.403468450978386 0.5520453802186344 0.09919705141170733
C 4.107811344137976 -0.6398100396740174 0.5404317198172113
H -4.500091831174529 0.8315130939808937 1.8588103868004942
H -5.781649764797332 0.22019595372743958 0.6542798411407554
H -4.055403841898097 -0.5255415593578312 -0.8587493941511071
H -1.4987503838444343 -0.6926381928965403 -1.2265192009373205
H -0.06859702080308694 0.9361529691638156 0.8869506148138032
H 0.9079839485479734 -0.11769999240782028 -1.8318188952927816
H 3.6821818258143044 1.5693631131198076 0.11394115475445557
H 4.521313507341709 -1.151681313860207 -0.37142295130910685
H 4.991370887269046 -0.36141459153793354 1.178556544415238
H 3.514977799211062 -1.345204911212383 1.1279242047619416
