20

C -3.56486364533109 1.5611366130158608 0.24291160422438912
C -2.9038795758474385 0.48891534960329847 -0.17089300110954372
C -2.057063845251576 -0.3156650715613322 0.7540728632059202
C -1.4688138900597554 -1.408072006450356 0.00693131914227185
C -0.2519369234191862 -1.209646498189878 -0.45768019954551414
C 0.9931597704352573 -0.9509313008813304 -0.7800198959390878
C 1.9839600022658217 -1.300758461169156 0.18733509619390834
C 2.862061287402361 -0.4042370675431056 0.5647756436704348
C 2.853952994408205 0.9553557641943838 0.017247818741951887
H -3.472708354411177 1.8412832594232884 1.2837656740131926
H -4.183102563793505 2.1672970229215034 -0.38442830116050497
H -3.019861627141421 0.23211969863996654 -1.2359610882401761
H -1.2853510979423786 0.2928568416239942 1.2654541608630845
H -1.8492651892052623 -2.3605915680830516 -0.23797876305499072
H 1.0926910410804245 -0.5076357356906915 -1.7331918589030437
H 2.0433169596948564 -2.2789794070514966 0.6260313569897573
H 3.6057190080589283 -0.658236401334667 1.2874312582363052
H 3.8966615846518433 1.287932694510218 -0.1426927826036929
H 2.364399423470595 1.6197547728583293 0.7488911951451137
H 2.36092464093447 0.9481015011641872 -0.9702012070029107
