28

C -6.536799371859162 0.8415067510983562 0.13124869892304977
C -5.8087664032922275 -0.22507550051929762 -0.10158138158987547
C -4.5803283156010375 -0.46986790006864954 0.6824981982832092
C -3.459676614912711 0.19964136750501582 -0.0039951618752009106
C -2.38995830147654 -0.5111241984346016 -0.27817288106479615
C -1.2347727626230391 -1.1320703841055295 -0.23815179481340354
C -0.4361365953773492 -1.0817679363386514 1.0137127616348998
C 0.47505701869261585 0.05342768513267773 0.9382065055628535
C 1.4473303887776279 -0.03703981634167802 0.05018338961606584
C 2.410653944354119 -0.26623567461767694 -0.7950280345874979
C 3.57000128255648 -0.9437030903709647 -0.25276521494932835
C 4.769228081003833 -0.37649588934040185 -0.1855101790581064
C 4.980465570690261 0.9725090331745445 -0.6599719909223322
C 6.174507806830678 1.5358966116342687 -0.5924705746563536
H -6.232253844980732 1.5367192609146767 0.8977978446417753
H -7.4460099224430945 1.0757492155394361 -0.40891988282434105
H -6.095496930194362 -0.9287587610351475 -0.8604839405783413
H -4.447082013930633 -1.5521297059937713 0.7743175998479909
H -3.478460943693385 1.2174529144978234 -0.2793321064217574
H -1.0925750888316825 -1.0617130189986597 1.923229498883015
H 0.09448790179694637 -2.0711825889165874 1.074927848972132
H 0.4964087548519525 0.9568329898648261 1.4820450310745854
H 2.2316138120862394 0.06802188565538494 -1.7772720184038566
H 3.4254802096113166 -1.9541403644926192 0.10590812816136552
H 5.594352102544923 -0.9279655968860349 0.22740907926870527
H 4.1792417121764665 1.5577122104923116 -1.080288320125264
H 6.364811973051221 2.54180903492767 -0.9383858336386592
H 7.024676550191778 0.98199146602351 -0.17258538129332404
