23

C -5.181825261409276 0.259972466964485 0.6567309880910585
C -4.217452890378308 1.0382525613892601 0.20183895208642116
C -2.804381561416723 0.5769646261045576 0.140074106727357
C -2.5000824760233638 -0.40181365412595926 1.193976337651241
C -1.4191375229041059 -1.1511870823045078 1.1494763818329121
C -0.4991651568883932 -0.9971580069646278 0.011887011401256968
C 0.5991334101840134 -1.7263452065010885 -0.07804664548872475
C 1.5093938054936706 -1.5968602414309838 -1.171791302206413
C 2.7214485037944955 -1.188313404039503 -0.8497303733446762
C 3.8701311307363047 -0.6961509010844523 -0.4760840680104134
C 3.976999245973253 0.732573665944205 -0.4535099782939704
C 5.13051129699835 1.3124675015695713 -0.07903549963596576
H -4.932135847818959 -0.728706669588612 0.9883485752350375
H -6.200832637133852 0.5948439214216835 0.7004455305371271
H -4.414696197935337 2.0462106882591446 -0.14582989119497958
H -2.109456599032233 1.4217939778077966 0.14120947405250853
H -3.1884773274293994 -0.5002447065546873 2.0218991833960707
H -0.6986245050788301 -0.2851256996760702 -0.7767881913951193
H 1.376689461378803 -1.7719932525597495 -2.204048967032176
H 4.589083809049971 -1.420135660503185 -0.2316724774151455
H 3.176268239752739 1.3972252036266968 -0.7229341649148922
H 5.228192453451084 2.3697571182215835 -0.056212046407098495
H 5.988416626635897 0.7139727540242536 0.20854133331252442
