20

C 4.030852739637719 0.5422182871412823 0.36259640301818424
C 2.9623594680284326 0.6634004071865619 -0.3865410321795338
C 1.6114818601858638 0.7898197915351587 0.19169529236917288
C 0.6987191649351017 -0.2356444616133092 -0.3393118005509604
C -0.5548014500708517 -0.25093172349712095 0.024340454995678232
C -1.0650411658563477 0.7564296611701138 0.9675822336668302
C -2.4925158273233974 0.607325067482264 1.2783177953684859
C -3.2530872180693526 -0.3461871959029061 0.7581388407993078
C -2.738459033482897 -1.3395375886556664 -0.17538727294183862
C -1.4635298554519967 -1.2857560818721991 -0.5152225377164148
H 3.923224703659918 0.5342091667042643 1.4383122577628047
H 5.01228047243258 0.4507136037802197 -0.07783268539556776
H 3.0662163407594716 0.6717101461576397 -1.4574483420724413
H 1.5913904188817714 0.800077817054723 1.283759174908709
H 1.0653949238308125 -0.9695002454142382 -1.0249563524721614
H -0.7399361572676919 1.7765908486487754 0.7683505513658064
H -2.916256681051286 1.3331147283623912 1.9747012956387207
H -4.289163215755443 -0.3605755178384857 1.0572961439550521
H -3.3792594910344995 -2.126516123242116 -0.6007904670693305
H -1.06986999698787 -2.010960587187354 -1.202135811592272
