31

C 7.026248294401152 0.08930334790419084 -0.8194994558919201
C 5.74595195175091 -0.2267690376763548 -1.0044503713381239
C 4.744774991343989 0.8624403384312102 -0.8516259569470546
C 3.404396256227098 0.32905494023329224 -0.49176548263745185
C 3.244952376690943 -0.6612632861510211 0.3698808927530454
C 1.937412344685333 -1.1388302004771003 0.683147456132853
C 1.0242361114408625 -0.2161516136739753 0.8873114132683636
C 0.15512891710652765 0.7751859627701364 0.9776330724082368
C -0.46451056465120955 1.1696261050626886 -0.24021347105992646
C -1.7735746763862967 1.0530453868567158 -0.4126324984177014
C -2.621991946400236 0.5098736896378391 0.6573265237795294
C -3.890969797751122 1.2034419241883816 0.8313921780128976
C -4.905001021779862 0.7201780065714766 0.16926729807289265
C -5.899252541372139 0.09761233875642633 -0.4452460311285077
C -6.56277661785013 -0.9507329890621921 0.31310704169840425
H 7.359944740371088 1.0785338673622025 -0.5694410754970052
H 7.81986506698216 -0.6696585560094372 -0.9173933249787886
H 5.486991471545301 -1.2401620672293014 -1.2531916839075066
H 5.083200409968975 1.6510584160620696 -0.16595136511898695
H 2.5563284980216383 0.8050400357495862 -0.9827416651663836
H 4.120678862834842 -1.0890675451538026 0.820597435383932
H 1.5656002498911612 -2.1216615720953036 0.7808106237051397
H 0.04726346181127188 1.1363626396341882 1.959465970869793
H 0.14985915538573544 1.5772697078618274 -1.0512224598015876
H -2.2298718797048385 1.3572344623218335 -1.3441326628794434
H -2.722617048309507 -0.5963737940079756 0.6088361606561308
H -4.127518463529197 2.0558632517843893 1.424330640655221
H -6.067719888467484 0.46117635106332766 -1.4188207135674913
H -6.073376625853815 -1.9267854706797043 0.04590895840483889
H -7.638439855718526 -1.058175397146385 0.04764109480038907
H -6.495212232684182 -0.7862916686516497 1.3916714577362794
