22

C -3.49954174843478 -0.3905042553330151 -0.10574208225145144
C -2.5776915626871597 -0.6951541260939091 -0.9898527394881822
C -1.354277883524865 0.09894387353470867 -1.22755483250454
C -0.915940334726251 0.8844760481295473 -0.02924240283061704
C -0.6165691943625909 -0.026081919743640374 1.1510104261523615
C 0.49130200267906354 -0.9979782857591357 0.7897643844050055
C 1.7197182681109282 -0.23478103604578668 0.4341974328304799
C 2.732749228555667 -0.809703633329512 -0.1781833213814705
C 3.955628206689476 -0.06210878822654924 -0.5353718255529091
H -4.379164481637043 -1.0092085094034324 0.0278828017478667
H -3.4158823820404876 0.49397758916633716 0.5261548244545369
H -2.7114739273294712 -1.5864791444783666 -1.5919157342331742
H -1.5467973944333138 0.829762458308497 -2.0471672248963184
H -1.6289283745198126 1.6575231732310607 0.2566092396930982
H 0.0515689551853066 1.3708291105507886 -0.2904690910328613
H -1.4913864355553548 -0.5975392612057673 1.4568141548746076
H -0.20224465669161235 0.6225883095618541 1.9701447217122665
H 0.712032541868931 -1.6248630537299442 1.6690688873889805
H 1.7877227701291571 0.8164930519099067 0.6819203726970289
H 4.002371725798929 0.1323148324245443 -1.6368850936548536
H 4.001261560947256 0.934637161631083 -0.05446085901711655
H 4.8855431159780816 -0.594975175167975 -0.27672203911266585
