28

C 5.645740178195286 0.2330525733162255 -0.5017545175674641
C 4.37268591237368 0.5176196380172543 -0.7353977227532625
C 3.532839341422244 1.0557879793434117 0.35428590177592456
C 2.690524907152246 2.145496888851648 0.017599079442099076
C 1.5594979416929375 1.7805354338653798 -0.501365057403776
C 0.4737773665085956 1.6416946312146925 -1.1905396442801968
C -0.6808908555460154 1.4640227985490786 -0.39434085504730654
C -0.9629061371065883 0.3998290662914861 0.33489331241969744
C -0.001001021835862398 -0.7206548179951279 0.33615202652127746
C -0.6791348322096977 -1.931250551832873 0.8116889328197179
C -1.9664014571427777 -1.9620179412027308 0.9826056054046765
C -3.1455714584396492 -1.894625189019741 1.5281588782771196
C -4.352038958734722 -1.684492143844458 1.9678505583267298
C -5.40529626387395 -1.1128927510998894 1.1189843276485647
H 6.291343357896257 -0.16465925632094722 -1.2826315497935072
H 6.0314200420144894 0.40832885316972767 0.497099414022215
H 3.9962960384948896 0.33787872344039377 -1.7410033245128815
H 3.1897718575137115 0.31445907814751983 1.0682090293337447
H 2.9976721482544746 3.141125168731332 0.1917205085519849
H 0.3922713422369959 1.650400641882379 -2.2375783254803827
H -1.4271201797874922 2.2790151554344336 -0.3668677207041378
H -1.8640973626268043 0.34002779245909615 0.9150383845911905
H 0.9416652714492877 -0.49272977295869863 0.8382923496503207
H -0.07554425534822548 -2.8058428610833883 1.0185128874344103
H -4.545791913298883 -1.9548949273603529 3.0043193778182857
H -6.092254311298779 -1.9442836262994803 0.8133984398492493
H -5.981072941134185 -0.3366811568909285 1.6509003073908088
H -4.936383756818619 -0.7042494268061243 0.201178786784908
