55

C 8.188246949777149 -1.572650827013715 1.6092878975477378
C 7.25784665636927 -0.6508457164278835 1.707491624866076
C 6.044665065926594 -0.6729580243733214 0.8426820637526049
C 6.297485819859831 0.20127360195680372 -0.3438898315993941
C 5.137295495598601 0.24914248625754976 -1.269010298934099
C 4.0191040377692975 -0.4184890435983895 -1.0454283865836425
C 2.881491810733905 -0.3721574584042265 -1.9512650398737867
C 1.765830621598519 -1.0398551020551443 -1.7252357915735936
C 1.7073872024786658 -1.8365956772460352 -0.5235574193249164
C 0.531789643783923 -1.8764422980924982 0.03706971761189125
C -0.642475098726236 -1.8593812341982499 0.6514030183533226
C -0.8505033653508293 -0.7640024809059075 1.5219574162049885
C -1.970589514436713 -0.12451574975900369 1.3628691757544864
C -3.0301825138896943 0.6496936231603943 1.3230839608923268
C -3.0767729436526405 1.5505626437099203 0.21567620323678183
C -3.8371660904267038 1.3021212020002229 -0.8338838206047615
C -4.693339178255668 0.20911555135907275 -1.0774620605616256
C -6.087767029853501 0.25876709785943824 -1.5696456041953564
C -4.238791019369063 -0.9722113297545383 -0.854266634618782
C -3.873830763280677 -2.1740999050680556 -0.53479560563967
C -4.143643713661723 -2.63543943342126 0.7714483761624147
C -3.785461241162273 -3.8485220570780374 1.123470140700531
C -2.2945428765182916 2.7676528277276913 0.22613519954549371
C -2.416685210210282 3.6341512541020196 -1.0191263104071526
C -1.499005575025844 3.2335681001057006 1.1468664276572405
C -1.1572350422515703 2.661479144841064 2.4615175077610885
H 8.072013392033103 -2.3645767394776813 0.885373763121592
H 9.058816360841261 -1.5532512388087967 2.23303674744445
H 7.378071825589366 0.1425266300044055 2.4351661031909138
H 5.146885008681342 -0.3628247716976527 1.4158072190112208
H 6.471657730641685 1.2254631106541733 0.0094219380956309
H 7.220245733117026 -0.16918419714545244 -0.8391619428986405
H 5.170825440961449 0.8482393373913923 -2.1792822042336897
H 3.992945203662907 -1.0213200644238047 -0.12489587454134399
H 2.9564511112387204 0.23086591352524546 -2.8380382347445448
H 0.9408379104456291 -0.9781676816211744 -2.426855934824675
H 2.4621151720789776 -2.381501588482842 -0.037579207735673775
H -1.2398851898209404 -2.685381316049636 0.3874874970465727
H -0.2124475733435305 -0.3922377829762119 2.290618217744663
H -3.6956916600462204 0.4839988071860768 2.1182129912100547
H -3.798378679406813 2.0584907238606385 -1.6421464455881973
H -6.230827800463923 1.2418669755239418 -2.066379504941018
H -6.254270733407451 -0.5170365605997507 -2.3444352655356693
H -6.831169566970106 0.18607714651870744 -0.7681554814068436
H -3.388985937494945 -2.6796779601102965 -1.3457910472536576
H -4.648801320520504 -1.9952627386807635 1.4990616064884281
H -3.2907337154781424 -4.482487337031711 0.4195340277156994
H -3.9952343309767167 -4.188030658092471 2.1165610216656585
H -1.7438087142202285 4.514504284620685 -0.9388932860238058
H -3.4729785513476754 3.960303051504628 -1.0496214556253713
H -2.086938758713635 3.0841279946476257 -1.9202766816488546
H -0.9790725383013963 4.204803924397304 0.9462945039332289
H -2.058263529101419 2.225024342607843 2.9066249024731925
H -0.3240771641469901 1.9610093578193035 2.3634081823956246
H -0.852451253352615 3.50427783925308 3.159750659674228
