21

C 3.0186997524214405 0.16690411729989818 -1.716999012011353
C 1.9722233158001152 0.9258996129694568 -1.416073297944144
C 0.9063950721811684 0.518730704061685 -0.5376268023876585
C 0.811775975448467 -0.6308936647280012 0.07997051637309548
C -0.34960484925448954 -0.9466034247435601 0.9751477889734819
C -0.07866840710698295 -0.566884675356088 2.3624453560029055
C -0.8881687941234757 0.3997960923538927 2.7383611902797305
C -1.7448621979334726 0.7123471135002395 1.6075296204964655
C -1.4513155443213932 -0.054953039703964285 0.5745404566792073
C -2.1221590472666505 -0.011824158636853453 -0.7448732236005152
C -1.7051520294741795 -0.8443956934157 -1.6583296993223593
H 3.0717813406075414 -0.8159215304293072 -1.2746160806761446
H 3.8019376134085556 0.5105606190111108 -2.384077687069323
H 1.9105494026033851 1.9135586288022075 -1.8552862264984382
H 1.5667335253013392 -1.3893220264047708 -0.03492636966420566
H 0.6798454009263135 -0.9961651420723361 3.0355040459968743
H -0.9145160903565202 0.8810588598725538 3.718393106512329
H -2.543875626766968 1.4763474921376267 1.5694091890977038
H -2.9021934150002893 0.6814071978645851 -0.8955030951837345
H -2.1403721252785592 -0.8876404922350718 -2.6675859299063123
H -0.8990532718150687 -1.5480492387249103 -1.4754038461436023
