31

C -6.402541997336232 -0.45259750199231497 1.120079304070569
C -5.242427676835005 -1.0743609960261211 1.1398701268526341
C -4.229584519793979 -0.8006616154426116 0.08507464213076923
C -3.6425480374481474 0.5513051650680341 0.25683676885449314
C -2.5901174204007766 0.8954529495947495 -0.44933641629934906
C -2.0058294566599457 -0.07136710232253757 -1.4060146294636549
C -0.8327843627861513 -0.6946823505982095 -0.8119257438072718
C 0.3311104717909862 -0.2216646804458128 -1.2239862920557594
C 1.4326649993334368 0.36358802361170317 -1.6191872588267422
C 1.8474740463054484 1.5018466723148183 -0.8324883075154197
C 3.128257245955845 1.6689877331149465 -0.5595215886885624
C 4.096778100328973 0.7289049739712493 -1.040023518533634
C 4.920322329978669 0.23741197883256868 -0.13781767510289458
C 5.62642506360887 -0.26736931396455443 0.8548818598692642
C 5.0575433865008845 -1.4395560647435095 1.5034358749343808
H -6.618122997278556 0.2528630409503886 0.3418647234036606
H -7.13803637951216 -0.6454692731581929 1.878307548620016
H -5.01323151979206 -1.7966988499528784 1.9308993671666006
H -4.7111434074538945 -0.9148665514635845 -0.9257351232488614
H -4.0990744725869455 1.2467108385674741 0.9750577903767232
H -2.1797846243543675 1.8933393270442496 -0.303496959495283
H -2.7521455589258856 -0.7662721625039226 -1.8223793960615144
H -0.7393628414120785 -1.4655002827482015 -0.10137778040108875
H 1.878491834754348 -0.07055741716831747 -2.465558159581562
H 1.1379597014589693 2.240297224980767 -0.4484276630760093
H 3.3933826091586856 2.5511977634653054 0.042922817148163095
H 4.2667507953484165 0.3540459507315904 -2.009993280431202
H 6.518552042454909 0.26207473866573644 1.0402414038621104
H 4.5821022115749175 -2.0942988825383986 0.7248418381555434
H 4.2032268821929675 -1.1063926223600187 2.1561381484852653
H 5.7756935518249515 -2.02862843937885 2.1068175786598617
