23

C 3.9879202239313063 1.7688030388003038 -0.8278011647987747
C 3.138356608043948 0.8050838344390208 -1.171975065033151
C 3.116078463337267 -0.46464206588993195 -0.3973379617838724
C 1.8099524135011185 -1.1543839038803805 -0.4951158687364442
C 1.285589845980171 -1.7118007593457822 0.5617766318571267
C 0.06550116354942753 -2.410176229663405 0.6817165166261326
C -1.046875781035844 -1.98854072433939 0.15408183524178887
C -2.01019050510086 -1.317854376382323 -0.3888157583892323
C -2.7305332045218167 -0.35430407630543886 0.4091516596776416
C -2.424928484113331 1.0551083662381446 0.12184678232395854
C -3.3658620485445594 1.8819268357668604 -0.28022908108035166
H 4.67051782824828 1.667033183805469 0.0004220364952943162
H 4.00065167763313 2.6823596681676025 -1.3888404227569973
H 2.4674015640368343 0.9269165823686419 -1.9998023575812187
H 3.421008369256337 -0.31732274087364537 0.6427913415723829
H 1.2892992437669817 -1.2011883526784262 -1.425585403568325
H -0.002870634932413039 -3.311728940301578 1.2097135254493545
H -2.2789628354387825 -1.4507730629253035 -1.3865638041736277
H -3.8399553054371585 -0.499782974205755 0.22641417026916433
H -2.5611044844148982 -0.5151145774251026 1.504191829837401
H -1.4232668424000832 1.4286221083215649 0.23764980045973633
H -4.407136904488715 1.5662080828247968 -0.41868268362349426
H -3.1605903708575815 2.915551083484686 -0.4948472591917456
