28

C 4.607493708377822 2.733836655166112 0.11634971496331428
C 3.821175418285212 1.9546124957657214 0.8617809369850596
C 3.3475700786322453 0.6258291612366692 0.3857858883533245
C 1.9195291248980515 0.6866808565051414 -0.03080311736043159
C 1.1643230049417215 -0.38739600676182334 -0.11368745189779625
C 1.7245197921323128 -1.7458429345016013 0.21552246102160894
C -0.21728768260885006 -0.22700832626045203 -0.5293382708442681
C -1.0359107238872454 -1.2909794854099164 -0.6316390781282509
C -2.421738549510734 -1.0896546513775895 -1.0535831186999158
C -3.4289195581484173 -1.5512994335224857 -0.0904131238607943
C -4.325603651171588 -0.7547772882276703 0.4726403806391775
C -4.286267017140835 0.6884046111032516 0.08750348393430646
H 4.9236059653072495 2.4162900005322796 -0.8622224904533643
H 4.933194475625108 3.68702192082669 0.4860802679109426
H 3.507852555875051 2.281674636323731 1.844979039182079
H 3.9894556821070357 0.3257663096522676 -0.4752531374542699
H 1.5031585937787795 1.644151958813549 -0.2690052526367594
H 2.6683426808258255 -1.6411452779633051 0.769806631978272
H 1.9182728375646452 -2.2984277448081714 -0.7377062249133678
H 0.9542381341456418 -2.2728666495202594 0.8238416805037142
H -0.5817910822511254 0.762559976987134 -0.7566739654528816
H -0.67385019926774 -2.278805868258719 -0.4052257300100623
H -2.647892394002116 -1.5970421858897896 -2.032686560838213
H -3.454216103066315 -2.5983272901238963 0.1862655281978298
H -5.052670751835984 -1.123019856010233 1.1764741522422888
H -4.853292540101378 0.8057623199699405 -0.8584018897410864
H -3.2167042521501608 0.9765885630812494 -0.01642265577815409
H -4.786587547342564 1.2674135326775562 0.8929058615137511
