20

C 2.8965609121791482 1.4694643678865076 -0.6705468562528262
C 1.9577682257814901 0.8654077536205256 0.03604382205187708
C 1.7181504214102745 -0.6115814028452539 -0.13883949152669622
C 0.4547714704966449 -1.0035980112579874 0.5209660670417846
C 0.4841967879789078 -1.9458003199023868 1.4412039773963892
C -0.7786694792772643 -0.3379862085390067 0.13412703587803088
C -0.8659507930059361 0.6044809440043831 -0.7738154396067058
C -2.268267227504837 1.0544574597059275 -0.911916612284837
C -3.0120057211802345 0.2226740525900973 0.06756299733772086
C -2.1291477882336727 -0.559683492896349 0.6453247186505705
H 3.476784736114733 0.8743705503606527 -1.3673340247044017
H 3.048977320403304 2.531869961982626 -0.5262992525041335
H 1.3759173928330672 1.438515025304685 0.7284355342531309
H 1.7672430773873726 -0.8720423280004824 -1.199915304062742
H 1.4102595187653366 -2.413510467437251 1.7001431164482455
H -0.40934207366401804 -2.2783695293041215 1.9622564442595667
H -0.05492810884641711 1.0393037260435505 -1.3775272553149114
H -2.6510038573191763 0.9454247647487762 -1.9356967535106735
H -4.08064396149758 0.2708295519654881 0.2521806588457835
H -2.340670852821101 -1.2942263980303885 1.4136466176048217
