27

C -4.339913114113091 -1.553812522812042 -1.0683554893584342
C -3.369273839277743 -1.5664977580142194 -0.16931276402908052
C -3.2806652603043416 -0.46216380004706314 0.8066917589325854
C -2.4133221726156027 0.6445194159990107 0.3680224724369246
C -1.0895758526249846 0.6110271364826729 0.4768776804651231
C -0.26744792472617496 1.7210883564025177 0.03347807272294313
C 1.0406829230867456 1.647526154562335 0.1593467341739562
C 1.6208326653342657 0.4157456620172949 0.757030098197758
C 2.5785197545278544 0.8336356533897956 1.7890048883557963
C 3.7707656342426192 0.4196677044174952 1.4169948606415617
C 3.6804727736483933 -0.27903443377177717 0.15047429907734722
C 2.424092519460154 -0.28842284719079797 -0.2477890626060325
C 1.8810383640205621 -0.9052113628810405 -1.5066554757277306
H -5.0674812458816145 -0.7513151000992129 -1.1010212664753896
H -4.470367331836574 -2.3289199757214023 -1.8173275597189094
H -2.680545992302616 -2.4025619090124466 -0.2001836228169562
H -4.298993724219173 -0.06384900846288763 1.072008187058061
H -2.8662925207565175 1.5085038728217584 -0.054447691822043044
H -0.6374615672636611 -0.26794704923042095 0.9060781308749725
H -0.6879169260072361 2.622154243185779 -0.4034772273152235
H 1.695401913764815 2.459100560393654 -0.1610036604254418
H 2.3506417207845183 1.3986642282911679 2.7217935993738744
H 4.693408746885183 0.5801838375294175 1.9819241762118531
H 4.469637225270951 -0.7426600466309733 -0.4320269299004394
H 2.7057569645525406 -1.3261630664538786 -2.1209491518534
H 1.344298595599073 -0.17128880790577852 -2.1134964028876366
H 1.2137076707526289 -1.7519691372589605 -1.2436786535856634
