19

C 3.598969573703177 -0.5809000688549288 -0.3033024399941661
C 2.4714433372076874 0.10618571801089909 -0.1754036128695442
C 1.1998364703122733 -0.5710148596709194 -0.4970578475718645
C 0.12506196427583532 0.45124102128260013 -0.786297871873466
C -0.04139310526254695 1.2894151181690883 0.41913261858382356
C -1.2358025428624082 1.0851561052804435 0.9193062781895216
C -1.9113247591632252 0.11564689997985887 0.08304512268896236
C -3.3071362333750827 -0.37103582172634403 0.3425698336905269
C -1.1568908751775477 -0.2727557767116738 -0.9109596253251288
H 4.543956901346649 -0.09721389756813481 -0.07054537304835473
H 3.5807395528250674 -1.6163221178503266 -0.6370024975591431
H 2.51425780925074 1.1523827299982552 0.16378348097102122
H 0.8351706547571548 -1.2190390763788304 0.32348499596360464
H 0.3588536539266836 1.0499364722960534 -1.6922154209233768
H 0.6717562940605595 1.974346511550787 0.8582625428932682
H -3.8210910230118182 -0.564883802369618 -0.6233942599304495
H -3.191407932347102 -1.299845165137465 0.9448931886258923
H -3.8548238274697337 0.35279118980575325 0.9793641975122777
H -1.3801759129963798 -0.9840911801054788 -1.6996329946111757
