18

C 3.865462426682199 0.591508422687263 0.5619001058181333
C 2.6797710347030064 0.14390663840842388 0.9816622930549393
C 1.6343429506044511 -0.09602464848945108 0.012827734191819937
C 0.4488434971620985 -0.5389831582254893 0.3929625070995072
C -0.5659676334819927 -0.7579167388644756 -0.668331825815539
C -1.6109324804585197 0.32939078273234035 -0.5577795989523001
C -2.705999040933384 0.26027322755205645 -1.5498014542625003
C -3.015970750283766 -0.1009035528046274 -0.1368810533242456
H 4.04015264010107 0.7713498143027236 -0.4856193698837198
H 4.664773697334016 0.7797332070894998 1.2613357459644312
H 2.4785547928014626 -0.044419229087326456 2.0253011067468263
H 0.2260546980022167 -0.7341314635820251 1.432780281320336
H -0.10504712948552501 -0.825684884916054 -1.6588439121520793
H -1.0109659808943083 -1.7686846625673218 -0.45995909548230707
H -1.2544350818009302 1.2835327907547267 -0.15152958864175292
H -3.077078804334592 1.229962845572689 -1.9322799878338106
H -3.572435902325653 0.638641066788313 0.47825439727012714
H -3.1191229333918167 -1.1615504573508268 0.1720947196286403
