21

C -2.8237830224275644 -0.9120216128888626 0.28505687130825436
C -2.2208071150054702 -0.17035038835003455 -0.6246904950665589
C -0.7455974945378138 -0.08906986291894949 -0.7750944379194893
C -0.08830460542625687 -1.3965153524044602 -0.6519271216595152
C 1.155266715819833 -1.7623600413425125 -0.3820497499168412
C 2.4187571184345193 -1.121145346876184 -0.09014523132512554
C 2.796716360675962 0.08497305220677587 0.12138624982664663
C 2.162416499182206 0.9357350397066828 0.8767996296991375
C 0.7352398307898728 1.0835112769214958 1.2384493252884894
C -0.12787614914247802 0.9791865337493705 0.015398966642916106
C -0.3937315508126905 2.1775850611698417 -0.46637160636668856
H -2.2542531050300236 -1.5243068801202442 0.9976992194203832
H -3.8955692522249388 -0.9125318659632136 0.32423073108853545
H -2.821680195211619 0.41491464844960446 -1.3038683558553188
H -0.7658913174704146 -2.227714462571784 -0.8169982265420876
H 1.2299329946653297 -2.8407577467101945 -0.38430986756091173
H 3.2272285746565488 -1.8270834525516269 -0.04006208976116586
H 2.840203538109811 1.6705838992627127 1.3148401522430648
H 0.5923578402324501 2.0939213095048594 1.7115872366607208
H -1.0078573933938773 2.2665979953861446 -1.3505385352381454
H -0.01276827188336401 3.0768481963405394 0.0006073350337259315
