48

C -8.099071793779263 -2.0749282574903662 0.5644468406827482
C -7.702529357269426 -2.3339751254838816 -0.6598378065005955
C -7.138245213659412 -1.3421060045058613 -1.583711517759861
C -6.6263739918995785 -0.16274781421793225 -0.8440702390173652
C -5.508143932706852 -0.2958339672251793 -0.15274578994429425
C -4.788905813284704 -1.5532011991727968 -0.1078558488204459
C -3.67719481703709 -1.6853893386905636 0.5791186468237586
C -3.16331388786333 -0.5536844245442035 1.3031699321708927
C -2.5693685816918053 0.3572418388989901 0.5709370768350172
C -1.9290459645424578 1.1867456320789391 -0.21557064301247625
C -0.533819254127858 0.8969105318346688 -0.4018983548496906
C 0.2566813753026404 1.0368196709192317 0.6619390900102698
C 1.6831101202160053 0.769279002883722 0.5758576713793915
C 2.700644262147167 0.8516223261385483 1.470438117030613
C 2.545981102181073 1.280186378743113 2.878591588359517
C 3.9082918587780227 0.44742431304521973 0.7647931205105434
C 3.6100125738606392 0.13337961169577003 -0.5180481539993093
C 4.638057959900446 -0.31239033930730153 -1.476510604567404
C 5.991956312171984 -0.3686880662612806 -0.8721899004511701
C 6.766858675351552 0.69216351576618 -0.7394892140525298
C 8.077291388866348 0.4925940480013769 -0.12615267226623286
C 8.889681246652524 1.5254024730925497 0.02845919471893578
C 2.232601389355009 0.31663176119128533 -0.6872559592500387
C 1.3892478808604152 0.1859431580175831 -1.7627296019672711
C 0.06804927921009568 0.45846749130157644 -1.6418161299241643
H -7.992536283123762 -1.0370031964033182 0.9012751474963326
H -8.509227868841224 -2.837703652862063 1.209542330352693
H -7.796457228012591 -3.3583310849995405 -1.0235381411465527
H -6.3124067299290285 -1.737919095970151 -2.2054049252405807
H -7.163632419204948 0.7824829395717922 -0.8754621629564062
H -5.14350623965763 0.5748213246158526 0.3846580587967597
H -5.17460414251512 -2.3941361882004837 -0.6478595591045916
H -3.146743197474238 -2.6283411939389714 0.6067250147840537
H -3.1830443766229872 -0.3325415697005483 2.3306166424300034
H -2.526431261797719 1.957751769960544 -0.608751859299539
H -0.12704288754076715 1.3520569668925908 1.626806652953673
H 2.3371664614156984 0.4027251699067728 3.5349326615182246
H 1.7750113118654935 2.0562451450414216 2.9965482591028323
H 3.534247547268405 1.7031968765072703 3.184851995737149
H 4.8862224569319554 0.39840069317918436 1.1729446444770124
H 4.6569116221645634 0.33418086639362826 -2.4000582208001107
H 4.420182609200513 -1.3407690006109154 -1.862152113715706
H 6.479106677588378 1.676333069487897 -1.0571469582616757
H 8.406991463202187 -0.4898500914872502 0.21007180493117655
H 8.610459475129247 2.517171364895876 -0.28750563000034296
H 9.855876660912573 1.3846576696634247 0.47982587552203815
H 1.67193492502628 -0.13494572626321277 -2.7808732366294198
H -0.5809313929459792 0.3504322293521271 -2.497915123091575
