19

C 3.272991083577315 1.5458112539368323 0.16757532926024132
C 2.6883194332219644 0.3847977824994858 -0.08653253683884775
C 1.9658492096018974 -0.3262192992288148 1.0257318053686915
C 0.943915419583953 -1.2690482920261072 0.38749528496529845
C -0.4124266369711321 -0.6308632404691256 0.6176031586247485
C -1.5197014318309177 -1.4388891919418019 0.04747928744590284
C -2.6579741893265747 -0.8105633841371637 -0.19389607719131816
C -2.8772378219524417 0.6308842979215163 0.07158347414326871
H 3.787518446688656 2.045370982263125 -0.6379579814510392
H 3.259705153212938 2.0122053555168984 1.133048628103149
H 2.7367909070120353 -0.035162847749353104 -1.0829849316986986
H 1.188240350771644 -1.4075028748681242 -0.6629390441954262
H 1.01852313014036 -2.214646202309194 0.9625440372315555
H -0.5345093321743226 -0.5346585258430195 1.7291508543218455
H -0.4616259352918335 0.3915890761511166 0.20210549521334975
H -3.4636336490349304 -1.3948881620350553 -0.6078583569781173
H -3.9403225649442915 0.7868576605771972 0.3701958819126954
H -2.724040229318635 1.263503968098427 -0.8267907657739032
H -2.27038134296567 1.0014216436432024 0.935576227583777
