25

C -4.767003329090366 0.7373624476478046 0.4359930665399315
C -3.7790003243966352 0.5074978970825569 1.2835248992321706
C -2.6110958662867443 -0.3200887215458647 0.9014470888825584
C -2.1750022426116735 -0.12580250427736964 -0.46183562755883745
C -0.9073600256165798 -0.41869156616656206 -0.706454197170808
C 0.3383508071913523 -0.7790181450165936 -0.8264088374924865
C 0.5780389978972373 -2.168428457349433 -1.1617882733908709
C 1.2785257446263238 0.2614037248974807 -0.6034039975584428
C 1.989616623613456 0.32502983379396794 0.5163321573106682
C 2.9798217191419414 1.386226932644974 0.796703516706073
C 4.365426217960682 1.0069046999532227 0.3506371723306025
H -4.717887517288381 0.3073884342659792 -0.5639028088451423
H -5.608290009403484 1.3491259186407485 0.7500212145670531
H -3.7967925484264646 0.9204720963526979 2.2862385764059
H -2.71402044940519 -1.383824830316704 1.2183035786017433
H -2.66629447373149 0.20851527650986576 -1.3246292396085093
H 1.4885139295960603 -2.2360975287230556 -1.8090117697420651
H 0.783035571686948 -2.7304552377191467 -0.20381766087112926
H -0.25108584912767057 -2.6587617984932015 -1.6751304353938337
H 1.4494548003660528 1.037480094450888 -1.3346692471747814
H 1.8502852781141195 -0.4328557854445947 1.2771164649810272
H 2.6815306827372014 2.3726723741916778 0.3992646781716735
H 5.028039157861168 1.8770450551562083 0.5382557584511496
H 4.430412949684464 0.7770110201321848 -0.7327251215450485
H 4.752780154906859 0.17988876933217665 0.980208983745278
