28

C 4.373562022407951 0.9510925285865041 0.7945960696160373
C 3.820672886975775 0.021877104596389054 0.03668751812857178
C 2.495587781137438 0.23450026599242213 -0.5878076920533867
C 1.9529300212483138 -1.0623147497969276 -1.140924879206911
C 0.6428906056813583 -1.2776826578905605 -1.195699262781464
C -0.28831393941036626 -0.25291658258940336 -0.7177477388242113
C -1.7008819121575882 -0.7401591581055117 -0.5765919998723743
C -1.9946374851135251 -1.8368646698928017 0.3213058698132714
C -2.8632127753840053 -0.9136778228192477 1.0277999679196759
C -2.596923559049872 0.05707591240435159 0.22479863599023905
C -3.0535531464709535 1.4774319319820453 0.15890024886692877
C -2.627343640603199 2.2799905301529155 -0.7750304300059574
C 0.247498940430547 0.42314589299846467 0.4558636284873637
C 1.5557704781896153 0.6523588297252045 0.5166834231147222
H 5.330913243466051 0.8548833640997819 1.2738480687368818
H 3.833316092640851 1.8991709492572657 0.9606508464948932
H 4.353321541259341 -0.8996906392647854 -0.1207837574352839
H 2.652148014074761 -1.8071742944171991 -1.489360437333234
H 0.2626859732736754 -2.230724981635214 -1.6023821739623318
H -2.0710957438453494 -0.9843786386474429 -1.625959670631465
H -2.566372467903555 -2.7199809467737395 -0.11558735836578019
H -1.198066882891235 -2.196269783051207 1.0164520621891409
H -3.518439843968563 -0.9874827105714734 1.9209965438192511
H -3.7477110644365035 1.841429831670601 0.898396939786024
H -2.9729154459431695 3.3009719598212826 -0.7996765184781457
H -1.9319977993754671 1.9952013117911591 -1.5531167676695996
H -0.37123870282664406 0.76097417529045 1.3075775455471255
H 1.9814068085945036 1.1592130470867614 1.3861113181100626
