18

C 4.418655418430028 1.0539542944880211 0.25787980487242423
C 3.5294089307826395 0.07777879898265008 0.39513896517501096
C 2.3822091259911478 0.2101844030983136 1.3045354274610628
C 1.1892161025377967 0.033340142680016734 0.7968038755292097
C 0.1604935506726282 -0.3275351670793925 0.043070641382726246
C -0.43672196933960805 0.7043112154343273 -0.8007934665415295
C -1.8909658798814097 0.809732825465124 -0.5498849307005745
C -2.535183522684292 -0.2653136967364084 -0.11000661370402716
C -3.9897489183946626 -0.27696488089965726 0.1752802315777236
H 5.230725401288959 0.8714654606790048 -0.432558647757563
H 4.282122765640328 1.9444357042467177 0.8263643017932696
H 3.5895574444536136 -0.8617795867273641 -0.14331372929494332
H -0.21198690495226638 -1.3315962439334152 0.05129236609096036
H -0.30783096966371204 0.4939212426036421 -1.8917690309097053
H -2.449133198408151 1.7076089558901462 -0.7048568144234229
H -4.131419108193205 -0.8254230639188026 1.1343413744465327
H -4.301332200318781 0.7930801553611444 0.2775453095669583
H -4.52806606796133 -0.7860985533391527 -0.6290690645642234
