15

C 1.6722374481839872 1.6921207819632618 1.841085989899267
C 1.0661254646913971 2.211935951083745 0.8032272115923345
C 1.048046049039802 1.4907676991780552 -0.47814810883569264
C 0.5228647159178685 0.11151261388843167 -0.22040463140034997
C -0.4841350590710023 -0.36793648600713014 -0.9276060150818312
C -0.9833185454823058 -1.7025299901811373 -0.6695152167372621
C -1.9876089592623887 -2.163157762078102 -1.384557571299661
H 2.1740103611336057 0.7150813980344152 1.7723335214301021
H 1.7366738896403116 2.1487581797018134 2.8202948497745717
H 0.5836805808941087 3.15952731107949 0.8834302831779647
H 0.977984313446796 -0.501039484587029 0.5593424829864567
H -0.9226067669128822 0.2534553540732575 -1.696170657141239
H -0.5369256489588559 -2.3055940906460886 0.09656862216190036
H -2.4051081798409384 -3.1601915796142177 -1.2348208080400904
H -2.461919663440061 -1.5827098958838246 -2.1650599525192584
