30

C -7.2869876573008 0.5765105503185658 0.12235561248681914
C -6.023052531676377 0.7440583581853081 -0.207051591231899
C -5.017050853190251 -0.35874920912714586 -0.16182332172532168
C -4.296909780804044 -0.354946747732575 1.1379785203346715
C -3.0090527161346348 -0.515487858442613 1.2589447050701932
C -2.1177144562349075 -0.7191046031033073 0.12456844755233581
C -0.8206194250781258 -0.8734977727515146 0.3424805082419273
C 0.04342415405629837 -1.0726883501710427 -0.7809818744021082
C 0.6784034756424843 -0.006295492514531275 -1.2101626732079342
C 1.352720879255513 1.0916893062430573 -1.5031135024184483
C 2.5785790732047675 1.2753700381807185 -0.8055248653650015
C 3.3469953733340034 0.24769398532085357 -0.5090020835513204
C 4.618934920189845 0.4258049565476314 0.21327261693727842
C 5.385019142869156 -0.5997965905562815 0.508771676008789
C 6.6557395486188895 -0.39120453558990576 1.2341314852313956
H -7.9750630790550465 1.3961065466790445 0.07517917442578817
H -7.6060702538346305 -0.40631932590183056 0.4394035411707124
H -5.6645151898945665 1.7096679834279231 -0.5288037883452623
H -5.4891313134370145 -1.3497954480726304 -0.30426377301334934
H -4.885083770758108 -0.20944230991023474 2.033256001058826
H -2.5670843230362164 -0.7345192911560726 -0.8582056157469871
H 0.26278074755718184 -1.9447755830643845 -1.332690706931775
H 0.8712790902102583 1.6829079406445984 -2.2258172507410987
H 2.907004669723477 2.270273511079524 -0.5021534156773004
H 3.0688556326150094 -0.754928890769224 -0.7856336378508555
H 4.950532105563572 1.4103565098429496 0.5171099321122438
H 5.079788016937138 -1.6016301984272516 0.21731900784220326
H 6.6250440998885525 0.5923214520294795 1.728966292281635
H 6.812218279259686 -1.149127881502881 2.032969562384703
H 7.521016141509237 -0.38045104970587873 0.525978516310064
