19

C -2.7717851035991985 1.3892090505288779 0.2535386497707793
C -1.7962941206756249 0.6135924533521694 -0.1773008647277806
C -0.9478380118868751 -0.07648706239466337 0.8267172986651361
C -0.9382271824980394 -1.543244937125266 0.5916119329003657
C 0.4580374038483405 -1.9163173722407758 0.2868972684484145
C 1.1939897779939954 -0.8278785182019605 0.3307921873474426
C 2.582625064870929 -0.3563031341481639 0.1618345293815634
C 2.5886841941065395 0.9558041357440732 0.36957542580256303
C 1.2506715522600789 1.4296068124115326 0.680082215210649
C 0.43879255204842077 0.36408775439806423 0.6531773679082489
H -3.4037985592777518 1.9029959630417912 -0.472057064837293
H -2.9263053252466866 1.5009276665104283 1.3146021430298094
H -1.6162576760580907 0.48163262172635324 -1.2534541362289158
H -1.2124468461141908 -2.107299192093687 1.5330294290903728
H -1.623074982547881 -1.8440461532906334 -0.2353967404714383
H 0.8227328358870675 -2.9418486579191048 0.059616196885644374
H 3.4001378787441583 -1.0055412594644229 -0.08514125124419211
H 3.509133260439807 1.530690519474886 0.2993284660511906
H 0.9912232877049618 2.4504193096904445 0.8881208321095739
