22

C -4.231106168195509 1.1647068986006635 -0.6105037442088359
C -3.3486395980317845 0.5410369816957044 0.14315077959257827
C -2.7977224830000225 -0.7657011276172885 -0.25666086911795044
C -1.5013587924177099 -1.0738673844546671 0.40831130025031587
C -0.34773276560103816 -1.0237391789318555 -0.21564214824795755
C 0.8962729537615531 -1.3376607774459544 0.49067692309786504
C 2.064289184876591 -1.5326673745740422 -0.3627446788609489
C 2.9239842262766254 -0.5554527455759156 -0.5723714255644511
C 2.744059945173818 0.7531352195129527 0.03653259655490826
C 3.5854979901712594 1.74628918308616 -0.15494043295178334
H -4.5432221160142685 0.694501152532815 -1.5324048382010296
H -4.672181021120345 2.1246232321067033 -0.37224978244880086
H -3.056563439090809 1.03941685289042 1.0612225118557608
H -2.7765854970083708 -0.932856735548202 -1.334374231684524
H -1.5236553854421175 -1.3508836325285454 1.4549859715107276
H -0.310360651583506 -0.7512833062191323 -1.2509171814878364
H 1.0673026971256698 -0.7964113634211673 1.4179335444538703
H 2.243151434622569 -2.479384981925151 -0.8358022325687092
H 3.802286020330694 -0.6752027197670404 -1.2040672641894061
H 1.8887919070947794 0.9138226066639604 0.6681149724320572
H 3.435810966121756 2.706390278846168 0.30362189802133066
H 4.457680591950525 1.591188922073362 -0.7957429659560438
