26

C 3.95007382995328 -0.3554272097362869 -0.02502623894200754
C 3.9609678747796724 0.9378391957413859 0.256292238922227
C 2.7411201755334536 1.7620320061271413 0.0520774284770504
C 1.6482952994049567 1.1602161784950649 0.8015820428722108
C 0.9291153364117543 0.26313352355525266 0.16067815026973137
C 0.21393042842509452 -0.5332424948951838 -0.5904981721611283
C -0.8686591755154858 0.08838398490140019 -1.339323360861858
C -2.0351413283071724 0.7313135673056994 -0.706829667478648
C -2.1824415492597513 0.7743176832192243 0.7997542826961371
C -2.9142897364169875 -0.5108210736406499 1.1392106795504358
C -2.375837926077778 -1.457151540441641 0.10097303301064164
C -2.207335496232024 -0.6602248553757045 -1.14431317866953
H 4.8423458669151325 -0.9671747090905972 0.12244385361691666
H 3.086715628951433 -0.8801633799640787 -0.40767894740616206
H 4.858846399386401 1.4023407049776304 0.6367824513853426
H 2.5587014746532444 1.922466876367893 -1.0055622186702902
H 1.324439802904457 1.3244363910219181 1.7941001714067728
H 0.5277520480396359 -1.5395815084721518 -0.5508414322383718
H -0.6261610693334797 0.41231273090027826 -2.362118701880969
H -2.5729926079789904 1.504611954937793 -1.2524699094444425
H -1.2175872580656617 0.8473517892851675 1.3041694770511936
H -4.010773946657599 -0.3758219298484007 1.0801885516785035
H -2.586203541243935 -0.7932479998894248 2.1713630798310524
H -2.9949043017654455 -2.3662863790076103 -0.025674592005243725
H -1.3449663729579486 -1.750311053340085 0.4501325944104123
H -2.705009855545071 -0.9413024531336914 -2.0891393819242876
