33

C -7.2284676436970745 -0.3168439651869072 0.05572519194569179
C -6.654076619705646 0.13149582403621773 -1.0363169009213236
C -5.2337250787870335 0.2318073555502718 -1.161986264259354
C -4.415757168905762 -0.11489831665479369 -0.20156173680481873
C -2.956317741666259 0.026454484565930008 -0.4284133725724364
C -2.1278880788652232 -0.31580178854171986 0.5216388705988486
C -0.6875281899379659 -0.20327347297384857 0.36663716766875565
C -0.09880280507790078 0.24447142883475112 -0.722572023953526
C 1.3590365344736306 0.3802740536548592 -0.9353801588535213
C 2.13523638265581 -0.048759905482527066 0.23134515929980598
C 3.470142478079535 0.01446603840157636 0.19243842707276518
C 4.18680550428721 0.4931823021257041 -0.9641140599417402
C 5.4867516522029405 0.5403873745037417 -0.9653110104696884
C 6.247454138326971 0.10179988320661418 0.22438239508633412
C 1.4473783676984424 -0.5370203312882164 1.414906396177074
C 0.1464048704711218 -0.6225564988877131 1.5138356985757349
H -6.703597290512064 -0.6427603784563566 0.9361453349418317
H -8.33107965533779 -0.38160834754743567 0.11979691180505658
H -7.276568259897418 0.4370688317868163 -1.873751991800604
H -4.74080147316544 -0.4987777711667587 0.7487753208047899
H -2.6072688466388185 0.406491121580159 -1.366746722606116
H -2.540797517351643 -0.7011940103937565 1.4677732585732137
H -0.7044236345474271 0.559802648757726 -1.583426224417402
H 1.5996975716163007 -0.2292324277071213 -1.8431250691096634
H 1.535819592263424 1.449021007150098 -1.1902019168310016
H 4.05630346982213 -0.30371770000103115 1.0586749852490056
H 3.6332101049489545 0.8106316082315056 -1.8254976887422447
H 6.0297152918977615 0.8957622302637891 -1.8228543555167045
H 5.9611094789102 -0.9422046157779552 0.47796960532743793
H 7.342583090921132 0.22362853060551546 0.0795019820966291
H 5.959786558004678 0.7418998313090618 1.1030557240715755
H 2.0682045330693772 -0.8472408255679954 2.2640480432845425
H -0.3585396155569501 -0.9827541989306212 2.387202785980167
