33

C -4.866082152668081 1.7883820590784518 -0.5499340666717535
C -5.7572497055106755 0.8352612859938472 -0.4397996458804452
C -5.605214010434673 -0.47259469985214897 0.06638573219304487
C -4.557493111444437 -1.0366872514124905 0.5383410076633667
C -3.2533716725363457 -0.3575124717487519 0.6326462023125967
C -2.1923391041115226 -1.3716651145649303 0.29122769039060276
C -0.9140513852031943 -0.9931672373462233 0.35162709354877275
C -0.5926840487421001 0.388678239211471 0.7460905777751392
C 0.6689620028786895 0.755103419197588 0.8036155487654254
C 1.7134362062565418 -0.20050544231025522 0.4801344669423107
C 3.1336071964104937 0.26091735816729317 0.5593114846924593
C 3.883819569406205 -0.1045479120265149 -0.6732244785280527
C 5.074092657473229 0.4233252953916962 -0.8842096684910586
C 5.7358151441606084 1.3722895209303292 0.030833264786346556
C 1.4689746116589166 -1.445913483237694 0.12281129106783668
C 0.10886077694223473 -2.001949357077422 0.013339776008414767
H -5.143031286699734 2.7795422601196766 -0.9753121591938783
H -3.827736723487859 1.7399413644611341 -0.2645006495146167
H -6.779340748226656 1.1042702792468457 -0.7997881545104122
H -4.578018971079717 -2.084608918742432 0.9071786137996952
H -3.0333577064988484 -0.0460609931953579 1.6749924798424718
H -2.423604931387493 -2.3634180755734207 0.008143873140516539
H -1.390800614190607 1.0866201695210662 0.9837698376695042
H 0.9026638303350331 1.7899058573299307 1.0992886067343883
H 3.199481586038673 1.3264464736861459 0.7910880248670824
H 3.4271490226262262 -0.7920075617154577 -1.3559631389967166
H 5.600743233570841 0.1454142639526192 -1.7831280246524468
H 5.695533992164462 2.384723696774283 -0.4103933448125213
H 6.835408600641273 1.1455087567394724 0.14568064206565187
H 5.226509568359327 1.3077027466905258 1.0187826714064054
H 2.355182646654652 -2.0818593939222887 -0.10010458843615863
H -0.07462803368779164 -2.4321573187921497 -1.0013376820317839
H -0.041236439644616686 -2.849377814979893 0.7489461253745229
