34

C 6.528542086319522 0.9617210312523385 -0.5781304018868998
C 5.555606183072951 0.07047200405798128 -0.44534195722880554
C 4.413700427121853 0.41170617015956523 0.44255033623609147
C 3.1437808926732203 0.365500109060854 -0.3269428974944932
C 3.1171917599029713 0.872478281948693 -1.5437959650969049
C 1.963696222494613 -0.23646965501408912 0.2794973826964996
C 1.1726544180758705 0.6582177995507679 1.1266214715422564
C 0.03390686916733147 0.1930611353296431 1.629326896182207
C -0.45421878509640234 -1.1880350823985777 1.3616577937446446
C -1.7581858485268447 -1.1904498858373607 0.6975291581449384
C -2.3506044982056538 -0.049822233066962096 0.4115705421659073
C -3.664374535895844 -0.06082616624432942 -0.25767049158698413
C -4.392827230257104 0.96668285041259 -0.6144716631915036
C -5.6248300795313515 0.4817145588315333 -1.2486168181604338
C -5.505726602469058 -0.9783804190793605 -1.2081238407225157
C -4.371585423979683 -1.2639072306801962 -0.6344608654557196
H 6.525980348718807 1.9192765633013873 -0.07125404789922203
H 7.401218266893728 0.7786096943852319 -1.2156963144952828
H 5.579306768289359 -0.877875651340695 -0.9604670506907774
H 4.409858766824455 -0.28624230075135126 1.3045080138118124
H 2.194345478039849 0.8404618637047958 -2.106670036915847
H 3.9918021631716476 1.3156338703449284 -1.986197264062205
H 2.247533618032667 -1.1857984894046971 0.7726026298264596
H 1.4869063606386936 1.6603697546014438 1.3451443175568636
H -0.5788871899309838 0.8255957288637947 2.2608458880413584
H 0.2984321298338687 -1.7940172488761421 0.8147799014290473
H -0.6006405294026423 -1.6547096217277604 2.3800575691216994
H -2.2080727806272153 -2.140592886810042 0.45528657102712444
H -1.884861097475843 0.8725350830908288 0.6615093090415266
H -4.080450721476992 2.007805785256219 -0.4410000421566526
H -6.513557796961869 0.8045310214848769 -0.6585153972490065
H -5.750172959217542 0.8451352923875936 -2.2931847717997975
H -6.27899072960952 -1.642451714380604 -1.6111085126129587
H -4.046475950606992 -2.301930012412862 -0.48322178531629706
