15

C 2.5671398687186313 0.3104335948971163 0.6627302771998946
C 1.9134834386252317 0.7218575476367973 -0.41079298918650053
C 0.4397191482652607 0.7657847048852022 -0.4903872638656408
C -0.16326859182458697 -0.5857917916292074 -0.635135312626356
C -1.4027695926098989 -0.8733566125549781 -0.33356341846672616
C -2.3774575740319857 0.12804676249340236 0.19885326920036606
H 3.6466782688116415 0.2916418744729585 0.6855765183633675
H 2.0394773391213215 -0.019082676645634934 1.5487670869445227
H 2.481809420654953 1.0412937231205723 -1.271076350103976
H 0.07542288593708664 1.2232089620755788 0.46201483100319063
H 0.47920230625098326 -1.3697944100994195 -1.0158887739315
H -1.7954096200500818 -1.8769653894053304 -0.45753703502771786
H -2.0534802734324398 1.1667107515764845 0.005115546945517436
H -3.3771288654497598 -0.043488933988522084 -0.2543511768327202
H -2.4734181589864237 0.0379650794499519 1.3056747903843642
