23

C -4.812401803189677 -0.7643545982328674 0.4908601042951538
C -4.072693799156377 0.2833250766648185 0.16379593173628226
C -3.1721876890602507 0.2373977020621237 -1.018360234453301
C -1.9723943641552037 1.0812293820652912 -0.8482124084656413
C -1.372932096994925 1.1558208614639105 0.3066316402832117
C -0.4882847646512688 1.0044630744362395 1.2815150480603041
C 0.24478543219334176 -0.21692060777597158 1.3728378346513719
C 1.1961311994023824 -0.3980985563477875 0.4999234746352324
C 2.213573577388685 -0.4360424323453848 -0.34397330974393586
C 3.4622319596661613 0.14783079151982192 0.13077859346466025
C 4.64131819136636 -0.47425251633851917 -0.6142963019349755
H -4.739068779088355 -1.6479070831350155 -0.12742646423110424
H -5.470894092293048 -0.7402419461540133 1.3496766575600294
H -4.1277537785770235 1.1957583668559064 0.7757891595337051
H -3.7716819157322328 0.5452634744455142 -1.9013664343967769
H -1.5944919657602088 1.6305713552398362 -1.6856475990521167
H 0.1226675652629438 -1.008856675330101 2.06314544671628
H 1.9637643611602411 -0.8930842244776248 -1.2569902275610407
H 3.478581257286034 1.2596708769855427 -0.022600824546129567
H 3.5894749449024195 -0.12305983236940934 1.200521911645247
H 5.565719144021048 -0.2632993412355447 -0.045039130399956044
H 4.676142857685667 -0.002044451613824542 -1.6118485537158813
H 4.440394558323405 -1.5731686963829878 -0.7005530404491537
