19

C 3.9641077487892895 0.1503374614186282 0.9744548526644499
C 3.026037755449475 -0.29651156492088515 0.17519887135858067
C 1.6971678081906212 -0.7848646862598312 0.6710585588102107
C 0.6772456739172961 -0.7509735393924648 -0.4090944220587127
C -0.5749197851693298 -0.4112958949455441 -0.17961578986539237
C -1.5291632358706273 -0.39278077595724176 -1.2590609624059865
C -2.7786273748623205 -0.05663983479260917 -1.0447549823730529
C -3.1979824162200825 0.30593579634078194 0.3305974879734143
H 4.899444181066472 0.4875379611340815 0.5519618810399284
H 3.856331442472605 0.202669082225744 2.049495843403083
H 3.1648769628652484 -0.33635162393764556 -0.8991980287262585
H 1.3680931157169378 -0.25078600083284996 1.5738726350528505
H 0.9829565444671893 -1.014972996967962 -1.4100891218412952
H -0.8998162846889296 -0.14398614904399226 0.8150357445587713
H -1.2212655971261934 -0.6559441772353133 -2.252802451336536
H -3.510143848034659 -0.03385241723584876 -1.8272904877664538
H -2.525434774082472 1.0940768742371825 0.7772040612905909
H -3.14336795584422 -0.5634671241295838 1.0191926611064512
H -4.255539961036314 0.6643893912259636 0.3438336491153412
