29

C 3.814024258654622 0.6440853291234341 0.32699767797547946
C 3.083582986014968 -0.10600538406371637 -0.4545139126722478
C 2.3024703192334526 -1.2170203384803784 0.09493042517957773
C 0.8668228189753714 -1.1575600314963372 -0.15933115331692643
C 0.1914691101384691 -2.3440082184589577 -0.09376844191486346
C -1.2705343842553514 -2.26542587400647 -0.3525857145896464
C -2.3642813424130487 -2.681652935138267 -0.8880721216162014
C -3.15942351493032 -1.6098554093427155 -0.31221866199390225
C -1.9968295518814452 -1.2456637517612694 0.44753613770283796
C -1.247562499425308 0.0008212053575367932 0.2841265662456579
C -1.4164571071809986 1.2340916739980972 0.6664658174014046
C -0.3344890138330497 2.0896521161303516 0.22319089345487056
C -0.1860836017357598 3.5632013567847682 0.47489341405918545
C 0.5256488962319433 1.3186048504956462 -0.46358794392483216
C 0.0443522890792978 -0.017400007595042254 -0.49357881651403207
H 3.848562003883849 0.4525199521201034 1.3820182002286536
H 4.385345238500182 1.4574123895099498 -0.07804893774379129
H 3.0542521564787197 0.09276753033988462 -1.5133401840184773
H 2.6942129008092524 -2.176865962509599 -0.2978926349812635
H 0.6415647340851546 -3.277975233205277 0.10517234527810043
H -2.5394729979237587 -3.5646570824259127 -1.5446638549616676
H -3.517493471709662 -0.8617117689002348 -1.0775551679258653
H -4.060707088949273 -2.0057357137304725 0.2465459442890634
H -2.0830196658390245 -1.5587418346989124 1.5458240931734077
H -2.257000239104973 1.6479802636450334 1.2579282602963218
H 0.4216313983486716 4.042395013044601 -0.32316701981428
H -1.1736946822583827 4.067898661748606 0.4515847551864284
H 0.31061885358853597 3.7401872901134627 1.4380285311576264
H 1.4224911974175685 1.7386619134020425 -0.8929184956407331
