11

C 1.8104753990730225 -0.06987076826086451 0.31342332135295964
C 0.7280341210532698 -0.6356322208177525 -0.20042115545022926
C -0.31918730569811476 0.24046788467208718 -0.7248422948290008
C -1.5110677144548075 0.3743348847025786 0.18211390924752324
H 1.9323888562675025 1.00468400966971 0.35192337184618183
H 2.6389787051998645 -0.6335071260453217 0.7258208667930901
H 0.6904671560332898 -1.7163712182610875 -0.19790051996886662
H -0.5569211291984743 0.12587421054021308 -1.779085626144007
H -1.5147954962139223 -0.3666369173840025 1.0099259990085134
H -1.4309594224614126 1.3738895146166512 0.672695776544159
H -2.4674131696002295 0.3027677465677936 -0.3536536484003157
