26

C -4.603386312858494 1.7487245187194844 0.35822724879306056
C -4.008757698353055 0.6996629105978741 0.8996411123567871
C -3.6805745131332204 -0.4625137348339224 0.050854448772705216
C -2.332988654138159 -0.41295377754084855 -0.5236681723246912
C -1.2329985232920995 -0.31823192567479974 0.2043239042677438
C 0.1037054717014269 -0.2713782611124148 -0.4164106828385312
C 0.40046437540909313 -1.4343704285787475 -1.3885494581599676
C 1.1051623386477352 -1.3261870131801508 -0.08812580884162804
C 2.5465649983920384 -0.9930386805788345 -0.1749722776403631
C 3.076119579399199 -0.07366230959824138 0.5863671681200775
C 4.513687411276736 0.22415045187869864 0.4654625078070404
C 5.077239983665829 1.145132389280918 1.218540331292263
H -4.83241237624681 1.7184027828977964 -0.7050802177671398
H -4.851823315758913 2.6150701069619595 0.9742921124786671
H -3.7829098579255422 0.7390574683809651 1.9668496725574829
H -3.9586697875625423 -1.426818712601037 0.5019442868756475
H -2.222251998632118 -0.4554197896032462 -1.597376288432241
H -1.3363376630376227 -0.27529779496068985 1.279292754078124
H 0.4943429019906324 0.7294659986130049 -0.6942497295096202
H -0.398766651707499 -2.1919733689073895 -1.5214891752657318
H 0.8487020568375085 -1.1087125418134482 -2.3358977660062887
H 0.8089196532688625 -2.0826591079337136 0.6895083191104782
H 2.467774760979045 0.45340324311766356 1.2875820542743364
H 5.134610733568712 -0.308721726148193 -0.24517273282390042
H 6.130868657122903 1.3437644257743617 1.1103815194499354
H 4.533714430386432 1.7251048768430102 1.953591396426413
