25

C -1.5383013104845251 1.5595140647208658 2.418055183203501
C -1.6620329764363195 0.45773537160757205 3.2131178724704164
C -1.3999389845044143 -0.8898743590266538 2.761138119101885
C -2.419717460855855 -1.6149181184694188 2.0970819782904506
C -2.697273657632308 -1.5813973492330302 0.794084605257913
C -2.1047434086842305 -0.8851648699779071 -0.23573402592016765
C -0.8492397561820473 -1.2773450172928293 -0.49204984592084744
C 0.46886512910316447 -1.1596856059264355 -0.6589584700713602
C 0.9668622999715705 0.22550117449264873 -0.7424479694673184
C 1.9763025653392237 0.5302159801375518 -1.2245880327921423
C 3.24767122198266 0.9194095801833652 -1.8400990976057396
C 4.56519321968281 1.2986488729401175 -2.4826225878971373
H -1.7395332270964639 2.5243342489208382 2.8330872050070224
H -1.2764548277943404 1.4448879691734933 1.3901787301098498
H -2.0007071344274774 0.6578688375346537 4.279394123311114
H -0.3523147593125702 -1.1140429564355452 2.5496265411988244
H -3.0635683417221204 -2.2485542856375056 2.75934908650461
H -3.6257225065001575 -2.1710943320165605 0.5039268980364188
H -2.488102461068937 -0.11191531554554142 -0.8494927577972184
H 0.9765111186342557 -2.0754425902818463 -0.7172315537984694
H 0.0644177567767284 0.8639937370945009 -1.2903149578752118
H 0.7748363470084203 0.7152785409879071 0.4017899933827813
H 5.143794213884984 0.36961106036140506 -2.5401318414499285
H 4.858655287337513 2.2317621968444494 -2.1969721271475513
H 4.174541662360511 1.3306731743686429 -3.635517718252494
