15

C -3.2835260260262147 0.4836386579442993 -0.39272122283963445
C -2.288124742499167 -0.3761952028887863 -0.4927925329013465
C -0.9391438767016266 0.028076528098777698 -0.16619482029472313
C 0.09206991758554495 -0.962283095337598 -0.1844662972084292
C 1.2910206316504353 -0.5960847347525242 -0.6225133803140682
C 2.5164859798352897 -0.1561548928581726 -0.8107652790158628
C 3.1955261673707795 0.4786337329496203 0.3739803044786385
H -3.1157673718204255 1.4947684602733606 -0.06914403536406422
H -4.28878078196695 0.1596393661809469 -0.64279749022858
H -2.463895459382329 -1.4016611767520586 -0.8217775620606375
H -0.7897890495311247 0.9437043401428167 0.37425586988419
H 0.04932517309241248 -1.9976183937769947 0.11410087570043966
H 2.475447190306991 1.186797104175935 0.8193502478034819
H 4.08487897327862 0.9953747035178585 -0.045111956957168825
H 3.464273274808073 -0.2806353969175124 1.1342694868666703
