13

C 2.623013818766481 -0.508167547991794 -0.19845105030298438
C 1.7217121618261397 -0.5633193487224065 0.7490496292200519
C 0.960745368742305 0.6190966394893254 1.0894037081902164
C -0.14672243151970296 0.8411837836427177 0.42210832550997024
C -1.1856114434911906 0.8664103066619607 -0.40156722479025
C -2.3431878538904645 0.055495619848505526 -0.010258384291140597
H 3.1839688891503712 -1.4122065217559696 -0.4372218924864536
H 2.8336097301034853 0.4062028624868554 -0.7569745721194502
H 1.5420028897733191 -1.473990708502282 1.2744391821255925
H -1.0746805097325152 1.4697369902095452 -1.2636254735524195
H -3.2429932920729416 0.5128322286282111 -0.5165514175703924
H -2.3121723121917945 -0.9864003585619612 -0.3303374837343453
H -2.559685015463438 0.17312605456727367 1.0840917811288397
