15

C -3.0541635421192646 -0.4999487851026471 -0.8901684669560708
C -2.4581095456771016 -0.771779365691514 0.2502304602392265
C -1.3113120206496012 0.0073759994601972625 0.794077826260683
C -0.06948228306477157 -0.7525180872753463 0.8420392330125174
C 0.9179037805067348 -0.2709877265922561 0.11721682622741288
C 1.886665038975255 0.34302376731380657 -0.5452849676950411
C 2.6479744284445825 1.3212544473800387 0.2062968183386555
H -3.8743238254850185 -1.1093896780740151 -1.2129343132156873
H -2.7296448203988497 0.32100363499286805 -1.4972771063707935
H -2.7880630422698958 -1.613857438838399 0.8768308824566621
H 0.18030945177995586 -1.6337248538300664 1.3653065388156234
H 1.955860092760149 0.01750229538158738 -1.5448945239891705
H 3.0369322562158314 0.8238343579222953 1.1364773201401002
H 2.0882473331863185 2.2394617667367562 0.4898431889076465
H 3.5712066977957933 1.5787496662167664 -0.38775971617171684
