37

C 4.681418006890937 -0.8349574335090016 -0.4386229777070314
C 3.606291940753873 -0.05424624284762805 -0.5013622244990328
C 2.245123583970666 -0.70624172684373 -0.3883590152443484
C 2.326683521034291 -1.5193404376684232 0.9124312345977998
C 1.2596679869048835 0.4030712692079971 -0.16822266940081693
C -0.17719965795231288 -0.0859056618619156 -0.16684582818369312
C -1.1393046638239246 0.9546001667971693 0.09072893541965484
C -0.745352698963449 2.2033899921808198 0.27867526336931026
C -1.6812184666047767 3.290954195253988 0.5426137161889584
C -1.321216051219563 4.525238822518652 0.7306817695769277
C 0.11163480467129103 4.937083751381312 0.6905343508082791
C -0.4153664777594163 -1.3448276026900845 -0.3729996264062321
C -1.6861848547554426 -2.053950160001287 -0.42020513022647343
C -1.8000594684274343 -3.381403456106817 -0.6408043077461941
C -3.1972502980128517 -3.74320105975886 -0.6211411535887875
C -3.9467959126649332 -2.700882086633225 -0.4013885466156023
C -3.054818236810748 -1.5337361481056617 -0.2585118995093647
H 5.677879560595848 -0.402754983310591 -0.5160599135105501
H 4.5809791207541215 -1.9211822735112392 -0.3085183549938885
H 3.727766838938861 0.9987204324422022 -0.6281965593655399
H 3.221654275884642 -1.238492222037865 1.5026468040900864
H 1.424269230649184 -1.324622890915829 1.5331403558285188
H 2.456133876897048 -2.5808524776771558 0.6518422716880119
H 1.3101084776077032 1.1757040826308351 -0.9534839294329217
H 1.4244989855540562 0.8921632035427018 0.8070298339606465
H -2.183447145582888 0.780225104064538 0.14750408927649394
H 0.2998242486219695 2.4734184833027104 0.2428118758073347
H -2.7382013314957208 3.039272192500634 0.5813568363272
H 0.5711336590537858 4.600175707210946 1.6316630899308047
H 0.5659964249978628 4.44425924995786 -0.21254836968089053
H 0.19645246182415946 6.0444048008088025 0.6425431655950373
H 0.4816794295080053 -1.9793597333561128 -0.5542843663261656
H -0.9383443609145101 -4.043956755103801 -0.8044172157473822
H -3.591512065496618 -4.763544575034316 -0.770954589984173
H -5.032278959341878 -2.62094656015616 -0.3232673124471748
H -3.2184617682617036 -1.1661279705602827 0.7848275139415062
H -3.30218401698495 -0.7621489961140908 -1.0364181386776148
