18

C 2.9716887601764936 2.545098937371613 -0.023478597906713777
C 2.005973750849676 1.836607069025232 -0.5759311788164243
C 1.9541419819554855 0.36128452994131766 -0.5783283947303933
C 0.6098100199605051 -0.19290553394126786 -0.7202853110158473
C 0.202267766218129 -1.328476087035124 -0.13171693851823799
C -1.1709187030349317 -1.8437075845013053 -0.30991932949783213
C -2.072266529725337 -1.5161717886605754 0.8191213575660363
C -3.1789270208869396 -0.8037095097260408 0.6881826948794023
H 2.939304460905954 3.6120551687883533 -0.06268602152438928
H 3.8238602628606775 2.086805669808295 0.4845695637028305
H 1.2018633304345956 2.373774079359033 -1.057322563342456
H 2.5706038839384435 -0.10464838255826059 0.20078935399279182
H -0.10564125088654744 0.3360152495694859 -1.3336245548732881
H -1.1034884054955825 -2.9548049915742283 -0.4454093877272835
H -1.6249747884847663 -1.4800708103635056 -1.2785012857351454
H -1.7880954322965879 -1.8931130831907939 1.8012636508134454
H -3.431575057489243 -0.444756198927602 -0.30139952103227735
H -3.8036270289971013 -0.5892767333860106 1.5320795477563403
