14

C 2.1889309667278685 -0.45849775624250283 1.3694914030688254
C 1.1788462562160196 -0.09612042916842582 0.6117542654369915
C -0.16448479581869105 -0.613260810911832 0.8510267636560157
C -1.1587860530833376 -0.3312054073014608 -0.21464349307326816
C -1.3467166760315394 1.2057331934540008 -0.43391255018754726
C -0.8665411687631124 0.2921449544331665 -1.4934722817279127
H 3.1760429543476025 -0.06422956095828007 1.1758777812223213
H 2.06272243340219 -1.1439596951766675 2.1868442266529424
H 1.3507721212257797 0.5910933674649146 -0.1940292856667491
H -0.5345568527624814 -0.5200623436373988 1.8729764097805797
H -2.107351055758179 -0.9107065991172237 -0.124228547423313
H -2.3863264679891447 1.5611051967844023 -0.3901628875804671
H 0.17293239124820417 0.4312615610631437 -1.8620965650512493
H -1.565484052906704 0.05670432932707175 -2.3496489771972264
