17

C -3.698235414743189 0.3020514848822137 0.17139361873722597
C -2.435564357060169 0.17722181985135455 -0.1451094069525875
C -1.468853428864376 -0.14490391629845248 0.8892438321173667
C -0.18386543395310673 -0.27868316855217495 0.6049197359779693
C 0.31669826480866403 -0.10414871956411298 -0.7832316485238693
C 1.7424674082722358 -0.5708716407882912 -0.8926142927503692
C 2.6893848063304695 0.16682296651406298 0.00035216619864773075
H -4.000523727114497 0.16395605343072686 1.1937449274142353
H -4.405248921540785 0.5431066540776128 -0.615748957889423
H -2.120261486565711 0.31275139986898354 -1.1634211677955162
H 0.48340691847068307 -0.5192053070887442 1.4210608703644598
H 0.34033833990876616 1.011490993300663 -0.9574137319726524
H 1.7485718078074524 -1.6618627579299499 -0.6885675675319751
H 2.0941195726471546 -0.44639140380600106 -1.9340800680297805
H 2.3042432766285503 0.3117332054488753 1.029257984046388
H 3.646186848966836 -0.42343261334902826 0.016560275604017436
H 2.9471355260009986 1.160364950002273 -0.4514163800091111
