37

C 5.301866016596202 -1.6426345491952832 -0.5405145497546523
C 4.347698042703956 -1.86039964682113 0.35440865405378424
C 2.928596127641207 -1.5082855048271453 0.0819974653990512
C 2.5360689466396753 -0.41429650694063197 0.9256884128565795
C 1.2310522269309345 -0.20370907227658328 0.9830546852123621
C -0.060598409721438734 -0.12928560683533566 0.9969772798593779
C -0.6742836411220112 -0.9212398560128888 2.025833021499793
C -1.881698729844972 -1.490843473989533 1.831003341438504
C -2.767602047582156 -1.453726069437045 0.6606495605869992
C -2.6572678565805097 -0.6419046236386237 -0.3587964611135696
C -3.8681337296948155 -1.2921561412855609 -0.9617158171909058
C -3.953828204964559 -2.1894354345578497 0.2119538285153734
C -1.8134953104887848 0.4516138224467492 -0.8267535286550182
C -0.5693992156421828 0.7131886442450451 -0.038164133886574324
C -0.016948639345360218 1.8668139881135128 -0.345899298566866
C 1.1553715434343554 2.3637006526447517 0.3762759099746831
C -0.5154992568732664 2.6636778091985636 -1.4551521198854667
C 0.01506726090553796 3.8138601356031008 -1.7886959133696467
H 6.3326061689219415 -1.8882713799509967 -0.36664432436748245
H 5.028504754845374 -1.1980266304028107 -1.4867099014577856
H 4.598375430730082 -2.3017645804258606 1.3018998635890224
H 2.321876020495948 -2.42440288363637 0.3371285252321581
H 3.034453720269234 0.27897238253418644 1.5235333053066498
H -0.22184949694028397 -1.1007061878899471 2.9607648204436896
H -2.274719919677174 -2.065319024733145 2.6509986977329043
H -3.654962164605571 -1.797880628071421 -1.9249939777113243
H -4.7584270348822155 -0.6164875178933756 -1.0086219137811208
H -3.7169337019405604 -3.2480306048790895 -0.051344345978088984
H -4.8541178406717265 -2.078241408542599 0.8599359578488032
H -2.421553414491995 1.4237660076651761 -0.7978525594123561
H -1.4891476288755292 0.2589175068296508 -1.8657893334771962
H 1.1140265266392504 2.007841754474477 1.4290238316552726
H 1.015771726279318 3.4908239134942805 0.4465340774203865
H 2.067277132281998 2.116677791823982 -0.15595169885832802
H -1.3468905419141186 2.3477024987082724 -2.081705729132885
H 0.8491400509996024 4.256013631400318 -1.2794750647619513
H -0.3603949104550159 4.413476793061157 -2.6228805672640894
