52

C 9.542090982941728 2.8001203085473247 -0.7438551016547934
C 8.98057126157413 1.8212625577451427 -0.050834411936185486
C 8.27336551334676 0.7310327350598975 -0.7758632734879112
C 6.987366252539889 0.43242551026524495 -0.09505718051888834
C 5.889371261930836 0.23225101864474193 -0.7844574204299843
C 4.636347556107249 -0.060076551152322064 -0.08915789000959454
C 3.521741609912853 -0.26515015950886117 -0.7456965601854639
C 2.265665853394417 -0.5593173236871332 -0.022542800652795417
C 1.7719945800574974 -1.968984830746526 -0.3694590487916561
C 1.2837692251583546 0.45809669939128117 -0.33316560521240196
C 0.04887025628235285 0.1853020678647299 0.0332865772247406
C -1.1321966739892515 -0.18716603613234148 0.4556780278380816
C -1.9156155923323346 -0.9380157302629006 -0.5092382336795779
C -3.230722679793722 -1.2967094322405328 0.11072592004584539
C -3.5478007903083415 -0.9482095146120935 1.3405955718565947
C -2.671279746998818 -0.18461357006292262 2.2301884096610456
C -1.4588644777203226 0.19911192520027868 1.7903830186878622
C -4.884961573656844 -1.4602525642227147 1.6050005211974987
C -5.875253878130554 -0.4515673933385592 1.9782363761782487
C -6.117041554782748 0.47077381952921604 1.0730433371513388
C -6.21985603501339 1.3944926951425525 0.1584570363746245
C -5.335486154718752 2.4963664024703522 0.2226857661238379
C -5.391381418333026 3.4639579228554256 -0.6760872012586553
C -5.290880761347063 -2.143001076868306 0.37552389605150244
C -4.315602130745747 -2.0465627049978656 -0.5053907669407521
C -4.327178554985863 -2.6154139801604717 -1.9049812265928567
H 9.496402404435027 2.821451583941725 -1.819007328470689
H 10.070470486137065 3.6205169782775526 -0.2676314747562278
H 9.023009231447944 1.7947844463068263 1.0225282308984929
H 8.122809455228268 0.9533259578869275 -1.83712931718595
H 7.006918608366275 0.38995482743572174 0.985033806230165
H 5.883288262256483 0.2768328443054714 -1.8480542855531288
H 4.607191060253876 -0.1132175798670583 1.0021093948082278
H 3.5400954210206326 -0.21492082855869352 -1.8218079712193531
H 2.4545222987680377 -0.5688950458961953 1.066190425619724
H 0.837037311689226 -2.1275642804392243 0.19950755817048504
H 1.6309855084900216 -2.075341623982916 -1.4655853106143226
H 2.56176423648506 -2.6898640228371815 -0.06197198405783339
H 1.3572535602356195 1.3929092364879794 -0.8030971987626119
H -1.3527493771808323 -1.8829590646838983 -0.7626056911770942
H -2.9813570836206966 0.07539361700419218 3.232207924178234
H -0.8341549722994813 0.7586192866153334 2.462366442454826
H -4.857157472416015 -2.223302387167009 2.4132758470086175
H -6.4354476520341555 -0.33191886217106764 2.86022512939388
H -6.990709114282183 1.1920145987129231 -0.5538439650965793
H -4.596730084625603 2.5854044075977227 0.9938583584489072
H -4.726210430662066 4.323367809746612 -0.6542138073138666
H -6.106390440468136 3.4249977843391974 -1.4628568824243704
H -6.230462276354083 -2.667139645546426 0.15310011859760034
H -3.9293851679730953 -1.8690237464105959 -2.6184012136661967
H -5.3473017933839015 -2.8870187413314667 -2.190249456344056
H -3.6907243099025204 -3.518560344489342 -1.867330894696632
