22

C -5.098534284130992 -1.4191144162669025 0.39813883240562215
C -4.208702804953907 -0.4377701370988739 0.3537762309787965
C -3.992482282699377 0.2707993125683263 -0.9066143940750627
C -3.1137596693056917 1.2618680791193566 -1.008881739927856
C -2.3583349407313197 1.63254620904839 0.18259377068297342
C -1.0372834430454265 1.6368815538074795 0.19956912809865535
C 0.19013142538407826 1.2652791746899965 0.2246528359457884
C 1.4485840430521773 0.9363602014635222 0.1640757146142806
C 2.5402914015770364 0.28890101995146605 -0.12906897255138755
C 2.889879864391203 -0.969637326887813 0.5109262898462894
C 4.1382446473878 -1.3980890569245297 0.5723066757139464
C 5.189149397218716 -0.5444460628375268 -0.04027404909366249
H -5.656457917926196 -1.6967810226127942 -0.4715233652166247
H -5.23923664168956 -1.9271662111948866 1.343165764738227
H -3.6340444558467264 -0.14030384268371773 1.2190650136604486
H -2.9439268443216844 1.7875006819604706 -1.916659590212834
H -2.931246677255433 1.9059076325758624 1.0586502338322779
H 3.193426793835878 0.7406949018732689 -0.8902958545246409
H 4.392600192574526 -2.346969331840738 1.0561075399680413
H 4.987367202065132 -0.4012632391565957 -1.1369955834705099
H 5.0449532596880715 0.4851757238770348 0.39829279229278447
H 6.199381734731507 -0.9303738434308085 0.09918128238464423
