16

C 1.4619468947087833 2.7617266357580927 -1.4961288327290645
C 0.5847641504696469 1.7667650879588355 -1.451986645865442
C -0.19856895089505366 1.3905797052831086 -0.2752288812459198
C -0.5987798730441818 -0.01143305696590771 -0.23386234374715426
C -0.4576199415022198 -0.7468241711190613 0.8547930661348067
C -0.8469455846826961 -2.142560955094863 0.9235987139947238
C -0.683339467077654 -2.8182914157776797 2.026997068030414
H 2.025080760250337 3.0115255484942955 -2.3878984704376864
H 1.671060408268755 3.3950461806844503 -0.627156024649483
H 0.44693526535862355 1.1962438379097067 -2.3644513842549033
H 0.1453408730391097 1.7830730119157605 0.6767715610554583
H -1.0270255575166094 -0.5005288804600799 -1.0963810937787546
H -0.024935525679727434 -0.2606926642138808 1.7337757815826444
H -1.27114717052992 -2.620502701991206 0.06319992062446458
H -0.9674134478293787 -3.85221169704836 2.0910807301117873
H -0.25935283336113735 -2.3519144653410984 2.897334651125541
