21

C 3.669779227614925 -0.6750019354095418 0.23107520013911545
C 2.854510246788499 0.23452757845665592 0.7362348334658319
C 1.9510038055355634 -0.1165115036931195 1.859883179413808
C 0.6072149681651136 -0.4185378012265972 1.26566993561652
C 0.25282981559490225 0.24161616019496843 0.19564644203327136
C -1.0390947257389644 -0.005740182689204478 -0.42873372548829386
C -1.5393562990147225 0.5834269790496898 -1.5161122588386502
C -2.846260673864135 0.008879230850488074 -1.7473500098112023
C -3.1328964545786695 -0.8969538513892734 -0.835339613323917
C -2.0095533499623532 -0.9999495681452383 0.10024673242682994
H 4.340323195997308 -0.4563494491571517 -0.5854678092599928
H 3.6866775816599393 -1.6769757414574704 0.6284622839851666
H 2.8321568307798763 1.244412737657372 0.3414623296183054
H 1.8024124001648 0.8006485509729347 2.4673755902909122
H -0.028834254344426567 -1.1748686384262819 1.7416657284594794
H 0.8885564955010234 0.9766731826167916 -0.2543048327120807
H -0.9909351189569081 1.3403693316500522 -2.0559059115855396
H -3.4759694509844103 0.3286745759844393 -2.59533533503453
H -4.037545062027732 -1.4801416499674929 -0.766410744669959
H -2.2658437372238276 -0.6664182805870091 1.1302123206180612
H -1.519175441104813 -1.9937388001344312 0.08702566465687012
