23

C -4.39973950428174 0.907764978846437 0.6265319457393944
C -3.4987184466784464 -0.024750666161705598 0.34686963898743334
C -2.47249602506398 0.25738291151852744 -0.6714074550608201
C -1.1577102723402015 -0.3237603391247949 -0.29197226669655946
C 0.001965520035486046 0.1068055233760602 -0.7581146406670645
C 1.0590104658311952 -0.7025122358420014 -0.16259265035925746
C 2.37054024957638 -0.6251303668666358 -0.3420296081320496
C 3.015968522000044 0.353865416219173 -1.2292507940181872
C 4.0195277124585 1.2228024463702247 -0.5066649611950216
C 0.3467512766578198 -1.641015734782472 0.6960519004542013
C -0.9356928319965122 -1.427753052366776 0.6261729670312314
H -5.183895528914187 0.733035386765476 1.3833470279965474
H -4.367975096437882 1.8514036511943637 0.10830927294593128
H -3.563220723372488 -0.9639593520370138 0.8905498576617038
H -2.828206170897825 -0.1866275378090357 -1.6314382251041106
H 0.17357459164190978 0.9276056250072253 -1.469898945003875
H 3.004732958226505 -1.3135295135652743 0.18745057484925218
H 2.32811601482866 0.9150056083823622 -1.869482323498579
H 4.06782271918755 0.9998321452311377 0.5772324524737339
H 3.8282996085593894 2.3052313109876152 -0.6388428614993252
H 5.016966009367756 1.0185837654660057 -0.9533219211838853
H 0.8731856152990661 -2.3958103747110666 1.2913147205560234
H -1.6988066636869048 -1.9944695960978247 1.1735716196974912
