16

C -2.7203270206380283 -0.6008290537862437 0.062364609525318186
C -1.8907144303478947 0.41408758481302355 -0.08601173185293375
C -0.5177208826118933 0.32572989336796926 0.41352742787776353
C 0.18836425978770407 1.624083991705018 0.4201685907825218
C 1.4705241540286345 1.41653499001002 0.19718565164610102
C 1.7250678004905544 -0.02125544298082929 0.024202087059460135
C 2.8404577404405447 -0.6705872960261143 0.2304909122763507
C 0.3863856961195874 -0.5329896594434503 -0.4436979987658061
H -3.753307298754255 -0.5843061094241278 -0.29241608730846785
H -2.4035003547176954 -1.5062802528025563 0.5505999004186829
H -2.249974696845245 1.3009230420380378 -0.580723518661755
H -0.28482254542339597 2.5872507011874353 0.5836915853717123
H 2.932924263681935 -1.7327501333507103 0.07553006645039685
H 3.7091595168470053 -0.1303295396019531 0.5696625396198546
H 0.2764292056434439 -1.608071177295784 -0.22280939342581144
H 0.29105459229902214 -0.2812115384097767 -1.5017646410133838
