25

C -5.77862685473617 -0.8262615648475026 -0.16413747407011756
C -5.206158419645886 0.3489423167889668 -0.07192361751224961
C -4.540790317823062 0.7146342442307395 1.1594777509853786
C -3.2370200959100455 0.49426956009762235 1.233068290807182
C -2.0118738989767757 0.029213123579828835 1.0546923597406435
C -0.9490871092035014 0.8817608090523643 0.47530658223210187
C 0.21797040312633068 -0.03703539436745608 0.43600636998571946
C 1.397941682797926 0.3269378242167805 -0.03781171143048393
C 2.4085074514244567 0.5695805372480122 -0.8225951021740561
C 3.385717065484778 0.5780276327433876 -1.6768330130037556
C 4.672957378365937 -0.1325432953175059 -1.4624874284071196
C 5.602114653134603 0.6908829535244815 -0.6052595380780545
C -0.1721365972378708 -1.3187923917050726 0.9825585360292106
C -1.4680942228097973 -1.276613652664105 1.3408808455515082
H -6.297464804614185 -1.183826670467255 -1.042971179960916
H -5.756794783647958 -1.5249842254585966 0.6750993309136563
H -5.229439471261391 1.0266117474115903 -0.8910858067803893
H -0.7180359847338459 1.66035525457295 1.2602017217474504
H 3.2515474235087667 1.134474663277873 -2.5945777209410448
H 4.448533229284456 -1.0675731264193868 -0.8991955261984882
H 5.116393872855368 0.8746274738106004 0.38806578725050866
H 6.530316495939375 0.08831607722024852 -0.4712464619838501
H 5.8452184196468915 1.6635822105597926 -1.1189537947252328
H 0.4979718499006609 -2.1649909611141176 1.076665626692381
H -2.0096673648699483 -2.104189668832945 1.7770551733298274
