26

C 3.606055814632133 0.19953875751023872 -1.5619468705571802
C 3.784850839766588 -0.29089394841027216 -0.3496414319465378
C 2.7591670023328083 -1.0895845335871066 0.34770291247568885
C 1.861934036565952 -0.2659142017369816 1.1933235223301286
C 2.355251084906844 0.7657078534329768 1.843776116500925
C 0.42462521773305506 -0.6025912305359545 1.3037679650773784
C -0.2596101295890864 -0.5532805395565231 -0.06237094823273537
C -1.6126813518165217 0.13496039337157584 0.1649802066079815
C -2.3892927892116287 0.20766017828318292 -1.1390505370566808
C -3.6719572689916165 0.8709023251376212 -0.8767937985642305
C -4.849728269293813 0.2958008844615154 -1.0885374613335461
H 4.39212915611807 0.7788051122209318 -2.0268044230630093
H 2.694524132617669 0.04646138489926075 -2.1215866028398067
H 4.719482697890296 -0.10177558715060755 0.1560456410370539
H 3.27146352556861 -1.8201292970394334 1.01240083940977
H 1.6887907235130375 1.3561833091285427 2.455866649954493
H 3.3948897150784423 1.069673594046287 1.8094154861922396
H -0.10418335843095915 0.019902710100704983 2.0520220837280796
H 0.2775640564227641 -1.6638463441251876 1.6612330651416587
H -1.4312837011817015 1.1387486135522573 0.5941725305769983
H -2.1519274225199596 -0.5193049727775857 0.8800276264224102
H -1.7982624768641915 0.6374854497180502 -1.9543773066517378
H -2.613273867277046 -0.8523532797930323 -1.4309244021160066
H -3.6642971897580328 1.8819610333177215 -0.4904347299022592
H -4.9046612859403655 -0.730480488213537 -1.4803964320388185
H -5.779568892271208 0.793718671054997 -0.8918697011521948
