32

C -4.682548576134096 3.945349231485759 1.0180917133769396
C -3.8798729037549387 3.1056522927565564 1.6432957037024682
C -4.422498078827461 2.0318942621348675 2.4600758621844236
C -4.127912074846497 0.7739342921213423 2.1632553419899496
C -3.602784504636352 -0.29941115390443407 1.631679667521676
C -2.282981503120705 -0.7362467174197965 2.0395740217570206
C -1.2876220438284376 -0.8708610300297137 1.1253450235784634
C -1.5784904920596343 -0.5688256536960362 -0.2541823883631024
C -0.8569178282030511 -0.6012811288878933 -1.3270277071303658
C 0.5261774681666992 -0.955870276444529 -1.5503313697917194
C 1.4877913717292932 -1.3548529165142917 -0.7461214799383404
C 2.709423374357045 -1.5819581152798 -1.4862628719742599
C 3.8358698890832077 -1.9718625080771324 -0.9915077799854443
C 5.057001985334138 -2.1105768888883194 -0.4822816143166017
C 5.732922170920476 -0.8710653806808418 -0.12532192945664247
C 5.346040306641485 -0.22466602770524066 0.9433898608766904
C 2.407521601134253 -1.2797642497572714 -2.8538727621296567
C 1.1362560355916012 -0.9142073056979059 -2.8975290810044982
H -4.2891952759737615 4.749977146856352 0.4061683081788477
H -5.760866951596908 3.876254166656006 1.082388901663356
H -2.826114870349049 3.220151770564033 1.5453150939351068
H -4.181464200859 -0.8223303725346301 0.8968592783545815
H -2.017396211460557 -0.9732007409376962 3.0558795592668377
H -0.34357773908932754 -1.1899993397967075 1.4581249535477452
H -2.661798460495987 -0.24271827344130106 -0.3825996216539019
H -1.4591382152064996 -0.28527428460791293 -2.240410394214818
H 1.4096235967603188 -1.5005749485284714 0.31095539137716854
H 6.5565268326151775 -0.4811381388247016 -0.742291534658315
H 4.5454526759508225 -0.6050784742904372 1.5418227718860134
H 5.824700398139224 0.6912294231974997 1.2316614544053988
H 3.0771464096074315 -1.3299533916757984 -3.7286298856137776
H 0.6087258144155353 -0.6227252681326197 -3.7971388223186255
