18

C 2.9134202207385522 0.13439991166273996 0.8069414460467078
C 1.599371527965767 0.0393056917001674 0.6895748551636055
C 0.9232929544044148 -0.05562679034662758 -0.6451627265577954
C 0.13927245524676224 1.1526787880070113 -0.9387503209733736
C -1.0905782649136602 1.4659208107545316 -0.6033893225922979
C -2.046219253186556 0.6638496317242973 0.18238554901472426
C -2.0647994037620525 -0.6460617342414149 0.3556785192128033
C -1.0855028915595362 -1.5799488924875915 -0.2348095967587887
C 0.14713863819195835 -1.3115378359208203 -0.6422085006478423
H 3.5007802603913065 0.1421638353111698 -0.10306632785086169
H 3.3367049735513485 0.1992167858283218 1.7914851833504923
H 0.9427299249219027 0.0249962919693166 1.550891183432484
H 0.6654197638252906 1.9127705617864248 -1.5319990279221998
H -1.483219463239983 2.4401479250867797 -0.9339526406952398
H -2.829793395744371 1.2137608992146953 0.6792477260005895
H -2.8466948571693167 -1.046915861496671 0.9660663515154282
H -1.40935529519223 -2.5918367033800616 -0.34315476065990763
H 0.6880321055303964 -2.1572833151722612 -1.0457775890785652
