46

C -5.190434854011917 3.669462342531881 0.7972187919597256
C -5.49359901544068 2.408923280543418 0.5572827811631724
C -4.678060775294727 1.6064078529906631 -0.39701013640401644
C -5.2567058444971275 0.27018318775283784 -0.5342444960606023
C -4.617121231760528 -0.8804637186356271 -0.37226489128934037
C -5.3144868551795525 -2.1500026836043666 -0.5389352555551231
C -4.58543518892186 -3.26047801849927 -0.3546275903146293
C -3.1766969182309364 -3.2878898702422767 -0.007238620415038922
C -2.527991627455132 -1.9495518798749358 0.14707379504778487
C -3.210424302534827 -0.7975177959645254 -0.025877512354828738
C -2.5514196446997888 0.5013843531533652 0.13163160521223852
C -3.242582476166155 1.614554517622513 -0.04304812165342224
C -1.1350143863961488 0.47829678864422503 0.4811833123832694
C -0.4654843830431544 -0.6441988089225653 0.6505277593703886
C -1.1705033406793113 -1.9016222858345588 0.4808529656471342
C -0.28139147441203755 -2.98865749344452 0.7044623796947087
C 0.9691620815855858 -2.494225127659246 1.0125987345508933
C 0.886904912542374 -1.0757697584756445 0.9874864569534906
C 1.8259590029431048 -0.23325309540527675 1.2168365200459876
C 2.8490782472285057 0.5826479234001678 1.3998894536438466
C 3.5802849482409678 0.8840905409418717 0.1953861627431262
C 4.456227405696293 -0.022729353755217133 -0.20610434655523946
C 5.231494748833233 0.2445971697672217 -1.4402327326760977
C 5.768077971516038 1.626834440606121 -1.3480754681675935
C 6.798078115347007 1.874991494023525 -0.5541000049760556
C 7.405588552204454 0.7696367722126884 0.23534622408642752
H -4.347701728599233 4.122904047122518 0.30043464876764536
H -5.786913630645038 4.236685183263642 1.4876744123752852
H -6.340218350598717 1.9724758206145179 1.0636220309956825
H -6.3012648051543 0.2015031539006143 -0.7911707096820113
H -6.3603533603221605 -2.1777103043823645 -0.7966441212724384
H -5.0858613804035295 -4.216744642514413 -0.47403770634004133
H -2.9424757090645257 -3.8456349746732323 0.9307489525311352
H -2.7436253966108053 2.5670257409268213 0.0763679114148437
H -0.5841530358980274 1.4085547267275025 0.6136471394980378
H -0.5171469283657274 -4.045176374810427 0.6494468445572572
H 1.7825406141514373 -3.1554824563245365 1.2162979227581328
H 2.965975600169317 0.8798570852762159 2.3875748828113346
H 3.449218847961547 1.7927245787638173 -0.379422968227134
H 4.649051077361502 -0.9527708346982898 0.30546064818579777
H 6.091970716764202 -0.4400059686664079 -1.5625965331955678
H 5.328629314638812 2.4409182627453387 -1.9228459154436233
H 7.222265997361186 2.880929212082232 -0.4589673645298002
H 7.765727714530966 -0.021933300656896054 -0.4751598979032142
H 8.268076787227482 1.1398466263121174 0.8244032687211792
H 6.612753988082062 0.36638364511781807 0.9213352175204315
