20

C 4.034667313791411 0.25305322570905414 -0.45403797866638607
C 2.920543022710109 -0.2943871681291653 -0.0013826056506961236
C 1.6423352291691675 -0.06813015109515513 -0.7198618877124419
C 0.626219827197777 0.35187675509161054 0.30883394790805335
C -0.6178544083466926 -0.06308997156966552 0.26663547834498086
C -1.4234825369284205 -0.9391127076372111 -0.6114350189261653
C -2.6865626217067877 -0.6029225805700091 0.15530513346262093
C -2.944976805696103 0.856108566837428 0.461947657824347
C -1.8198133268512044 0.15860786374068211 1.0978338735968665
H 4.060880447568472 0.877647525613723 -1.3509758397411487
H 4.967735105112244 0.09042783610897634 0.06675844754854116
H 2.9330865133437327 -0.8987439931511165 0.878084386612498
H 1.71224138946577 0.7705913881647102 -1.4453218035679867
H 0.9987609334873309 1.0222583166102823 1.0864977149706458
H -1.2144371360833377 -2.0257217374576446 -0.5410392369030669
H -1.5116381603434197 -0.6389587122179814 -1.658143790451021
H -3.3196625071229304 -1.3877965707414996 0.5676426219820897
H -2.713633165151621 1.5745740251422498 -0.36055459048761235
H -3.8443527478529256 1.0558602424172387 1.0606509105000748
H -1.80005636576184 -0.09214215286622442 2.176227864041427
