16

C -2.1618979823159585 0.169523690583871 0.5201046379983322
C -1.7291553447030545 -0.8078073425625586 -0.26178567477038767
C -0.3199997419916421 -0.935158822638874 -0.7144960331244582
C 0.5521680908388007 -1.5005358134960438 0.3460663263783739
C 1.3214347816665994 -0.9987156589351233 1.2407843853626828
C 2.242444170250843 -0.15768727881562677 1.0660860160685437
C 1.9331469269017327 0.996720793890388 0.5316424643706535
C 1.1355615760139965 1.1659145142089267 -0.6771816934958095
C 0.20815997488936513 0.38028269352652805 -1.1986796262416435
H -1.4510480349859656 0.9270956322858649 0.8548385455789421
H -3.1805281136562695 0.24280369896220078 0.8344892052345712
H -2.443866625475211 -1.5514338788893696 -0.585967794383561
H 0.5238233850265542 -2.5967001667998106 0.3569461661087371
H 2.297326150605731 1.8945246534181606 1.024784766514455
H 1.3405407157091558 2.078128923892489 -1.2265613605119143
H -0.268109928775564 0.6930443613691135 -2.1110703310882344
