30

C 6.200305321117721 0.7905869239238549 0.8973580031215712
C 5.521658440895638 0.5185588449007811 -0.1967134726318472
C 5.463708563800691 -0.8387620619171283 -0.7552673725153185
C 4.381186218967227 -1.0319263359952846 -1.7078184620171633
C 3.284748418426078 -1.5851427085279428 -1.2251950829466813
C 2.201647324670087 -2.024134978885657 -0.6295215004495668
C 1.3219855376736471 -1.0335093298180766 -0.0821101121078679
C 1.0881119630258618 0.06255695547513607 0.6149053330998147
C -0.06116620013762017 -0.5863160111721105 0.043210815797785296
C -1.3695618581416598 -0.6243169440484203 -0.14354754872016565
C -2.2513354509410437 0.40337122588550767 0.428112344205537
C -3.5567163737681047 0.37003245572960136 0.24482879105739336
C -4.4096716699302485 1.4031516000112956 0.823650196619994
C -5.700318626470451 1.4264685278635563 0.6796965686947712
C -6.348405581973463 0.3517265681247384 -0.11207052255817868
H 6.7354209054461815 0.008117350080097086 1.4124455825421696
H 6.220989310628147 1.8000578140418355 1.2797643059908677
H 4.990762503695126 1.314057692336897 -0.7010373780659281
H 5.6017413628588955 -1.6471115488725394 -0.034146266992689626
H 4.311663419777137 -0.8047422436176328 -2.7336745529460744
H 2.119913806001162 -3.0744674631446984 -0.6308480064939062
H 1.5343501327554037 0.8578344749939651 1.19671955997473
H -1.7558717690396592 -1.4394685337193065 -0.7310641404766135
H -1.8152854767617914 1.191453959063381 1.003849923526809
H -4.042776364165858 -0.405485748332605 -0.32876108657069886
H -3.9362524784100015 2.197099917621616 1.4078920855612822
H -6.290632092922168 2.1962749524383045 1.1165873386485468
H -5.984506551727078 -0.6189450868455949 0.29477586454473126
H -7.444631830683077 0.4214453633776225 -0.1048313219788155
H -6.0110609046665076 0.40153436902904927 -1.189257086029327
