21

C 2.8436594527080414 0.685172506323376 -0.12067158323300473
C 2.217795750758451 0.05233344353818554 -1.092025249964331
C 0.7763046465038191 0.25567787555583316 -1.3244016267810466
C 0.020902129881410048 0.06662247059487353 -0.04055355800828827
C 0.2229781136162303 -1.3458225676284201 0.525710889317187
C -0.9507184785441333 -1.4277544046983819 1.4347844394524893
C -1.9255916843050798 -0.6364576181836802 1.0050572611632596
C -1.4717082742377305 0.0424343984730556 -0.23912301663636537
C -2.0720177411016065 1.38980079046094 -0.4391386217732211
H 2.3186799663444475 1.3533958889943014 0.5119009134629141
H 3.89964285778553 0.5285951706821427 0.04035612324968767
H 2.7476712875950997 -0.6382853676446062 -1.7500349864641105
H 0.38648578217904617 -0.3183893576224394 -2.1631022148967505
H 0.3543843506932573 0.8014147177987737 0.7012720930021857
H 0.1389881067515008 -2.0415706367966555 -0.3270822045817807
H 1.1853069538242194 -1.4358567063281542 1.0448401843023725
H -0.9874105982216044 -2.0493696198561717 2.3166995404697377
H -2.904897303079009 -0.47026301428129846 1.4403505353955428
H -2.742606588102916 1.6507299394308403 0.3942631994862589
H -2.712984208889857 1.328986749499585 -1.3626925442246913
H -1.3448645221591589 2.208605341687574 -0.5564095727381023
