20

C -3.2890273492670756 -0.6009551934336891 -0.4255721038840851
C -2.130560567174682 -0.15283672786921343 -0.8772545399296277
C -1.5074329524549275 0.9930043175033287 -0.19154847315690043
C -0.0465029058871974 1.057063939245888 -0.34578778130130866
C 0.5767639047431059 2.1858409215208012 -0.10532980342411578
C 0.729570350141475 -0.16150812750385923 -0.7760133884912941
C 2.187503099663006 0.07771512324096286 -0.66564574577851
C 2.7367056365624203 -0.7196854273352681 0.23301114316297528
C 1.6612385012762918 -1.5412106824671337 0.7745403764843863
C 0.5109034948304741 -1.2425932520925702 0.2168064437832935
H -3.802805478245195 -1.452555583906003 -0.8953276404798042
H -3.762533039763865 -0.1396284521383843 0.42053347865008506
H -1.7012017226261966 -0.6592342491186672 -1.7348653865773356
H -1.7530033716268276 0.996884254229797 0.8753428877063159
H 0.03722208842790814 3.0574547276275537 0.20055754895926492
H 1.6426267696883274 2.2462263293479587 -0.21406430456041098
H 2.795890588913141 0.8047936019645571 -1.2253380074204623
H 3.7991938370811518 -0.749147889199738 0.5102491351610033
H 1.7857242699093752 -2.306377176962563 1.5426213915133313
H -0.47027515419072585 -1.693250452653773 0.42225893696589234
