23

C -3.970287485652537 -1.2102407244653495 0.584082881792965
C -3.89949145066736 0.020461128519997273 1.063500557451484
C -3.4205245674684925 1.116950079032991 0.20691768406866098
C -2.312367417837463 0.6957655268267146 -0.6532588812674947
C -1.3134255365110934 -0.03432279078906316 -0.2293814407206905
C -0.250312475868561 -0.4248171284705634 -1.101029167091494
C 0.9482096221674741 0.04363462298001915 -0.7965962425942759
C 2.103265575169721 0.4752865355633524 -0.3548506321800488
C 2.780617147979027 -0.3743360408468984 0.5750674032398222
C 4.087780622515411 -0.5277780647613528 0.4727731390945319
C 4.837263270511821 0.16415006684803296 -0.5813116516057771
H -4.326299730573147 -2.0037387233444752 1.2329868335085226
H -3.671444749682384 -1.3879719028420936 -0.4391354048779888
H -4.189570117020767 0.2511193950757391 2.089691930627859
H -3.141073888882889 2.02610213883052 0.7736900301556413
H -2.335545345356465 1.0129291059596122 -1.690613940089289
H -1.3341213223717245 -0.3319761094722599 0.8323063060893191
H -0.24718708228904504 -1.0330072199911942 -1.9614154959822487
H 2.3858529706012583 1.4148691232138104 -0.7523218093748205
H 2.216799557552633 -0.8851218873506158 1.3556053868047797
H 4.366492118747224 -0.024310232685449257 -1.5745587927261797
H 5.853826193825611 -0.25438878777051893 -0.6297053043351399
H 4.831544091108894 1.2707418899385066 -0.4324737182937756
