23

C -2.3861262560209244 1.9943572541443437 -0.7213672865890065
C -3.3246953868849523 1.2805508147584899 -0.17795387997166903
C -3.1726490981482898 -0.05745853578479772 0.24590730227272625
C -2.2295994642339934 -0.9154256445633795 0.25460004609266507
C -0.8408086788483646 -0.7916299944316332 -0.2211307576882649
C -0.06559662897436887 -2.093989345969883 -0.019513259114751262
C 1.3194211712870263 -1.935102517670216 -0.5059284258550519
C 1.9329984723992475 -0.8324743679999619 -0.23706950825515702
C 2.5713253731030266 0.2036271595994659 0.19033268632570144
C 3.438599977786523 0.858062212999233 1.2527482759108195
C 2.96566050979708 1.5709979827938891 -0.008554219525905443
H -1.3717003006836361 1.6809631032439227 -0.9266592002065177
H -2.5585991141037088 3.047464065433825 -1.0385738327881957
H -4.303870375988243 1.76877762630791 -0.045191562124151576
H -2.496120822606512 -1.9113059380552226 0.6882756035521154
H -0.3156727177353037 -0.006735215019212543 0.342347082234564
H -0.8321533304006293 -0.5855423464109382 -1.3081213052589575
H -0.13107610764719724 -2.4524839786346417 1.0109889336708942
H -0.5717888958601836 -2.8444367441041782 -0.6738904642179842
H 1.837512544768113 -2.675697280921328 -1.0632265121553666
H 4.470563392107289 0.40540584435943877 1.2255157570381685
H 3.7845434305918495 1.8666821908784166 -0.6949223273053221
H 2.2798323062960653 2.4253936550465265 0.23586076891385696
