23

C -5.492257267946021 -0.191088126956044 -0.12561907698940084
C -4.632184191009723 0.8126495612383429 -0.10141412765699999
C -3.7031725928596706 1.0508843846977587 -1.1854580444050984
C -2.560153033880271 0.4065857826871698 -1.3043195547018898
C -1.6967278734189974 -0.5794502915061892 -1.138941252206248
C -0.6124603204532025 -0.36489559760360096 -0.17636622734164184
C 0.10614127903999092 0.9031200492005191 -0.3424422387374123
C 1.3923123752301305 0.8098778937326518 -0.5358227568731617
C 2.6977110698590603 0.6311080834702514 -0.5617400204661235
C 3.3879575735915264 0.5921704658327849 0.6969744897312907
C 4.367960217566044 -0.2676308534365945 0.9837088375451445
C 4.829334221280437 -1.279211655873506 -0.012936296365435862
H -5.493376512897563 -0.8371561995536264 -0.9718060846002361
H -6.1694764417858226 -0.3357611672517499 0.7026618091194006
H -4.604709055975018 1.4883942922186877 0.7441064367920243
H -1.7600675776883832 -1.51189787940478 -1.6678016462706924
H -0.8715300607726171 -0.5503469440021377 0.8654538761571752
H -0.26199102511920425 1.8964362416820324 -0.3279843839644168
H 3.069878578408097 0.5362576175287327 -1.5389740665648026
H 3.1322223153984203 1.2813158398677638 1.4889079143366326
H 5.9278122160900875 -1.136395322022852 -0.11617966299738988
H 4.626935683514297 -2.2994848557991334 0.3461663061537682
H 4.3198404238276655 -1.0554813187462813 -0.9699902052429874
