24

C -2.767999497021003 1.6126880944322775 0.28317058426960806
C -2.9504702090146093 0.832354638968701 -0.7522423087739107
C -2.643828382069808 -0.6154094310952547 -0.7447391564771259
C -1.5280067504081323 -0.9636781169552713 0.1695607029384391
C -1.5953673773425647 -1.704603517688478 1.2515513385510155
C -0.31024464359517057 -1.8348965886399038 1.9003771444968938
C 0.5759676053926677 -1.1527979121875171 1.1956918081839925
C -0.10211612408082073 -0.5528329624855894 0.060519848872372974
C 0.34097169515289116 0.20975318119775838 -0.9209187977950452
C 1.7016549275576858 0.6160415812257612 -1.0462179383090628
C 2.628591234395885 0.26892813883049715 -0.20055557432887508
C 4.036837690355607 0.7046848343525659 -0.35302070805304014
H -3.004442965629054 2.666402717710004 0.2380648182076055
H -2.373163080406948 1.1816816725042905 1.1926890313316723
H -3.346527546636796 1.2446349974865056 -1.6772575806553611
H -2.5238549331202864 -1.0176105803452136 -1.7565413539268728
H -2.5148536814317426 -2.1854794991405266 1.6441603513468006
H -0.0584954694195023 -2.3870540687929838 2.8134606026833255
H 1.650004617623729 -1.0638979218533826 1.4427552016685599
H -0.37415050681663364 0.5451913511124546 -1.6743519027525886
H 1.9882085288324944 1.2444070786030734 -1.8825997576098443
H 4.151276100768464 1.792382481748698 -0.276861855610608
H 4.64760775116697 0.23775633436874527 0.4529243191971447
H 4.372401015747163 0.3213534966428528 -1.359618817455583
