30

C 3.6610081497087537 1.3664727116859254 -2.324690205034671
C 4.445072979296181 1.0639997595965516 -1.3045002708239037
C 4.960977797049835 -0.30039568507078135 -1.1593731851599405
C 4.080060810948447 -1.1706108667963344 -0.34127878901187486
C 3.3679914906940187 -0.6260284470229962 0.6287081197286125
C 2.4894983556776964 -1.3750000731344167 1.4739398771877499
C 1.4867556316357367 -0.7072370496546901 2.0040794543702956
C 0.4729041720253452 0.011469597038125869 2.397975933632862
C -0.6620941224940111 0.04055576639342782 1.5395652269731546
C -0.532011847956315 0.0796260605637355 0.23049516797406533
C -1.5808652845172066 0.11225416016734682 -0.7536599101444733
C -2.8515486702885764 0.10770107104438068 -0.48274559286075114
C -3.4808937526789556 0.07061977579656833 0.8076552975790603
C -4.80615357984645 0.07156982225850657 0.9007018052557503
C -5.617411696445664 0.11092492822651244 -0.32966263198416207
H 3.244712982145761 2.3553659071827355 -2.4923907176977624
H 3.409485180242299 0.5989244530304206 -3.0423291996139414
H 4.669687067527353 1.8832354558645703 -0.6032514609454499
H 6.021616241124157 -0.3657725795494434 -0.8786776772013755
H 3.9843745101200656 -2.235936785208937 -0.4925293907303669
H 2.50758809768776 -2.3939719732562477 1.7502059071763945
H 0.6362723825638256 0.49208474706253813 3.331067249305814
H 0.5034890186701712 0.08959360049751526 -0.1983818811978394
H -1.28278432768959 0.14397073365358157 -1.8343376766737887
H -3.5175958276366117 0.1367918601827613 -1.386563504636454
H -2.929905512149902 0.041780180632211214 1.713870270565536
H -5.309405968682627 0.04471836164946149 1.8391249365735935
H -6.694511980185654 0.16146501864293675 -0.12518159498761777
H -5.308684897989694 1.0063830052309382 -0.9433676772174305
H -5.367627397990276 -0.814553511586289 -0.9153923319724047
