18

C 3.2888361326592195 0.9525675466252522 0.007432986264671751
C 2.413370097158123 0.5350879456470707 -0.880869117894542
C 0.9515134347449014 0.4965959133347241 -0.6588989109131288
C 0.46935931202527204 -0.9000485168395962 -0.37692830121509246
C -0.9717358019883335 -0.9947357617206065 -0.14961506020794096
C -1.7779637560723596 0.05423595365242542 -0.18870108784147174
C -3.2332104174309397 -0.012347596090601161 0.03646181427560601
H 2.959357124921458 1.301053556752401 0.9822101240674049
H 4.356843905677228 0.9751268406185635 -0.16914842505794173
H 2.778410454353037 0.19498745378140878 -1.8417370536043745
H 0.6153692355266139 1.2322094207861294 0.09148315354978032
H 1.0213289359473636 -1.2570625582441703 0.5339572203653216
H 0.7688861520481765 -1.5540242728649791 -1.201910900497188
H -1.4211506683637916 -1.9522089273887615 0.06128348436187645
H -1.3553257684400208 1.0434719561318038 -0.4004394148511822
H -3.623739733966503 -1.0657505991730998 -0.06615490063554912
H -3.7916477723843323 0.6721287314755863 -0.6396859809849839
H -3.448500866415143 0.27871291351646493 1.093005911198961
