27

C 5.752005306017736 0.41456647515122647 -0.22181708585333917
C 4.526158978179436 -0.05479593141545553 -0.09205992034503026
C 3.836036955660358 -0.5584244981229868 -1.241755415859172
C 2.6294033527494944 -1.0508918068851865 -1.2695843453794922
C 1.7456128135016378 -1.1882718651214874 -0.1491971688429288
C 1.5684410095304746 -0.10709832260853544 0.578273612839267
C 1.3836300572018785 1.0319613374894872 1.1840126446399082
C 0.33032765575042894 1.8582850448952786 0.6821642228487379
C -0.9157082608205521 1.4904196294743697 0.9561390709126569
C -2.019432979010673 0.9320585812625738 1.3446404300741943
C -2.586946175090303 -0.1595832262830956 0.5479080227734802
C -3.9241082906349725 0.3473471945535643 -0.009986347115475459
C -4.591600887581651 -0.7238082881771494 -0.8558884091515905
H 6.336333145746308 0.8125166789860435 0.606193362696569
H 6.234106750247982 0.4199492589103904 -1.1881404658308452
H 4.090131132240388 -0.03668111010169961 0.8993464121993839
H 2.260522782297978 -1.3904498071919498 -2.2435300352363776
H 1.202775449535191 -2.023914775624824 0.19607196218649356
H 2.0573886869615405 1.2076951831139622 1.994244857800145
H -2.4862272567157904 1.2754237878942014 2.233666738172872
H -2.8484711587415026 -1.0348277773420738 1.1815464180938515
H -1.98724912853033 -0.4400947907179808 -0.3241080034623534
H -4.581722521607677 0.5698101037521992 0.8503342839418241
H -3.685358197245256 1.2399904989985757 -0.6206484923302723
H -5.057158387547415 -1.4690977933622653 -0.18828484321515138
H -5.390590475657973 -0.18238117570093335 -1.4428604953555015
H -3.8783003564356053 -1.1797026058268238 -1.576588885787987
