20

C -2.5461383281535452 -1.3890983938958439 -0.027829991015909463
C -2.2430923618861667 -0.14461320112451045 -0.25118660399092013
C -0.8901829301539859 0.3887264036972464 -0.4993699239300835
C -0.7757425412367643 1.697147120198734 0.2591938765393353
C 0.21579811801771415 -0.5049032227738844 -0.017407212570787874
C 1.5113821217931116 0.2292383698421477 -0.37056988882053166
C 2.7310650799885536 -0.5320989126650609 0.04538613390960625
H -3.564967035185155 -1.7060234520831543 0.14643232643454127
H -1.7786037554524372 -2.1533007317930006 -0.0095349730724598
H -3.0553884252947223 0.5989042097780045 -0.2607841722693339
H -1.7762206918271237 2.17137353032184 0.36313303694778565
H -0.38107105482161013 1.5578666231782279 1.2732406227075594
H -0.12274278104104078 2.3754782929251035 -0.3251798322509545
H 0.19566051867011247 -0.544594801345966 1.1035769767371166
H 0.1981814610493563 -1.515901600292552 -0.41538682777526686
H 1.550327914016206 0.38349737732909134 -1.471803905855412
H 1.5007953456900656 1.2199916217598032 0.12155942860984939
H 2.5503689700333583 -1.2109904560209033 0.9055543840702418
H 3.1719804884947624 -1.1338777831181002 -0.7803618303705869
H 3.508589887299322 0.2131790060827754 0.32039804793918464
