25

C -4.4851010430240965 0.48605846617363385 1.4638098004587072
C -3.243850800885163 0.02194694868039531 1.397595038731115
C -2.265049111994272 0.5551100674395075 0.417801106888854
C -2.0765898729593824 -0.45798030064875045 -0.6632176413469347
C -3.109634273340506 -0.7438419925563906 -1.4165785579285468
C -0.8306552483596931 -1.1250087356738978 -0.9116803425178309
C 0.16377512972823638 -0.8033887993707894 -0.1334670667238421
C 1.1397121721917287 -0.36532476926692503 0.6384051332235713
C 1.854329396089298 0.7606359639862836 0.1560083327489338
C 3.164481442509098 0.7226673423377981 0.28579155012127655
C 4.467943118326757 0.5408035408579182 0.35931792466127643
C 5.086824142605173 -0.12403665877799208 -0.7791609082547823
H -4.832028698988509 1.2766873726388879 0.8005018204621851
H -5.21805305307107 0.11383898690382392 2.169627569787072
H -2.928600086855992 -0.7611400998426473 2.067039883912517
H -2.681682388344791 1.5082122675790617 0.020732563369964308
H -4.048963734010987 -0.2621397709714267 -1.2533022272263818
H -3.0196796998818902 -1.4631299795995538 -2.202184440173244
H -0.5989106391237609 -1.8440467959503761 -1.6403270029184998
H 1.261231660132908 -0.9133213966101724 1.5227341212656669
H 1.502976484717407 1.638223674625559 -0.29876546047867253
H 4.886566903163086 0.910452147167773 1.2540090148259027
H 5.262045425621516 0.5526316186489438 -1.6390535111315432
H 4.465445180273902 -1.0136979658313416 -1.0897067038864612
H 6.083467595482603 -0.5603862121560285 -0.525929997872623
