23

C 4.710447986002791 0.6107254679501697 -0.7814854657553828
C 3.8162390327612363 1.503810519402785 -1.0765877052818695
C 2.3799301077762016 1.3448531583209733 -1.0081976617023676
C 1.8512203717509252 0.21789460523762058 -0.6193328467055808
C 0.40653341729741266 0.024599896085555063 -0.5391653320679319
C -0.06672187313564007 -1.1315656133283207 -0.14089375572145516
C -1.5339193916278038 -1.3703167812441674 -0.045024759282873264
C -2.316206447423879 -0.18713579826719767 -0.4400070429087854
C -3.163660557585688 0.42914879414391227 0.3738754596015703
C -3.432252350826141 0.02182575074861746 1.7561239093470513
H 4.426744915055691 -0.3655651023460687 -0.44635078561581293
H 5.755508000072093 0.8146589649470052 -0.8612922612711763
H 4.227523174360958 2.484625036749148 -1.4145298726816136
H 2.471628916312341 -0.6086934219075378 -0.3441471657064006
H -0.23025430014753728 0.8322863052562204 -0.80777550960081
H 0.576793792272356 -1.9559644249124124 0.13332681925235998
H -1.789963611706759 -1.807438583288827 0.9212039710008825
H -1.7513655177776908 -2.170689063319095 -0.8117799879760886
H -2.1705177603481576 0.17451965104746056 -1.4524729251168356
H -3.704795063266123 1.3077612633985187 -0.008541980717008853
H -3.3869927309752526 -1.0664227778654336 1.939049867910978
H -4.425521851229626 0.39138426502600554 2.066589871457434
H -2.650398257385224 0.5056978881723009 2.4080972605849085
