20

C 3.201695625276825 0.36068380130384375 0.48100984486283366
C 2.1612423633913305 0.6164173893235033 -0.2932905171833319
C 1.4580086507831345 -0.45562965781709913 -1.0321179875316795
C 0.04102660346307991 -0.009800246748640001 -1.4135366229684172
C -0.6722637668214269 0.2930102626885119 -0.12429216655366937
C -0.7563821105928168 -0.8591829616070954 0.7746770605876675
C -2.023046626667298 -1.0374231780389043 1.097828474575978
C -2.819380734989257 -0.01767751746737486 0.43006123405669
C -2.032970778973147 0.7624729832766585 -0.2857457921897559
H 3.7163039494309698 1.1366511300781064 1.0202013835595964
H 3.588229647193744 -0.6500183501152558 0.6101687540775252
H 1.8211550629870332 1.6347868367541238 -0.3845589177554836
H 1.4172755627771823 -1.370852640612442 -0.395040487372124
H 0.12223399940275347 0.9220779994299048 -1.9831746309139549
H -0.45791208674180073 -0.7659633305297204 -2.0278248057722683
H -0.08996295226468187 1.0998763067232933 0.37989721073157556
H 0.050465346613166144 -1.5017329044623176 1.1506488961046542
H -2.4058519456486 -1.8311796051638378 1.7648614117021948
H -3.903355687246247 0.07152719893590488 0.5206037398889239
H -2.4165101213738995 1.6019564840488256 -0.8754055652933996
