38

C 5.522022786162148 2.0979699404321908 -0.9809441192829306
C 5.244587702255635 1.2611723922239138 -0.00891513276821124
C 5.280028644015053 -0.22899858930891778 -0.24407177676358435
C 4.575101240281905 -0.8770295224265687 0.8501879847447882
C 3.4143922631976866 -1.4082742204943421 0.5537911305842341
C 2.310201734273913 -1.9040476421593109 0.15102047135481
C 2.1346651928129816 -3.2214249655075182 -0.3604901122624724
C 0.8074170919400551 -3.348865025607488 -0.6785534786269891
C 0.11613893147929812 -2.159264199923294 -0.3907866702821628
C 1.0580257614039235 -1.1928520407974494 0.15096069150816677
C 0.6563664775371552 0.0021290519688480685 0.4997925392029765
C -0.7624056153089432 0.39478973616935165 0.3506550364882888
C -1.1253135322533123 1.6719741073231478 0.7371006043824244
C -2.4545381464211116 2.0668229026794918 0.6071224439574445
C -2.8177500561702566 3.411988627204232 1.0180384864629746
C -4.046666660983427 3.8845388813770207 0.936722033401455
C -3.3549265150647796 1.176186018748441 0.10121197944273615
C -2.9656296067415813 -0.11452432976386326 -0.28470782606317374
C -3.9057939049831565 -0.9825556141693746 -0.790607710423375
C -3.503359652609629 -2.2472957368727204 -1.1644550226700539
C -2.2088079221775696 -2.6449765494868673 -1.0426006838020472
C -1.2131211696853617 -1.7976551192898305 -0.5327926817624858
C -1.6452121211663413 -0.5189846446494893 -0.15999924163712437
H 5.4984250500960545 3.1513154716380107 -0.8201218459168258
H 5.776315495239477 1.7140980765638052 -1.951817801035611
H 4.985726275937124 1.653686776814201 0.9797646515808692
H 4.829564178905049 -1.0023538994340244 1.8634906313420578
H 2.8613873301455195 -4.006413760879338 -0.4948822698405981
H 0.43061991462909155 -4.289560385929357 -1.095390180483103
H 1.3779857636500275 0.7034624318905889 0.9007528353151372
H -0.36450560303972496 2.312750383632279 1.1242444367911566
H -2.0381660940592026 4.082858072942509 1.4198298727302827
H -4.839257155130174 3.267610202167795 0.5517239474227259
H -4.248389702602729 4.90405655482075 1.263231748626289
H -4.380468336451108 1.4250317291130379 -0.019201700021627757
H -4.92034728386022 -0.6467964211958567 -0.8774115530978889
H -4.2390534055208935 -2.949504087683518 -1.5686158101414274
H -1.8452593497321297 -3.6410646021305446 -1.327491011299345
