17

C 2.374444229990551 1.284151863576664 0.21961677487209458
C 1.9870419169794291 0.029647849649990198 0.09991043475502122
C 0.8091545670257734 -0.3819750459134397 -0.677932943976947
C 0.24620863357839734 -1.6357177952476887 -0.16651376310925783
C -0.9999663748857739 -1.5281453333857506 0.21318510003207217
C -1.4162223932564957 -0.1672146440963917 -0.00578927300578305
C -2.5901191232171237 0.3503353275758433 0.331911275186132
C -0.31004979171243924 0.597038759119628 -0.6842188340670803
H 1.8451915717017822 2.1180909843801112 -0.25381728643587015
H 3.2489350874162164 1.5471425543857649 0.8022746359561906
H 2.5612015545008187 -0.7393380806975255 0.5970113306733745
H 0.8081685065413815 -2.563952543062212 -0.10814736042728353
H -1.6457732506715992 -2.308493324521465 0.6281688019809771
H -3.3353883299410847 -0.26212519828599046 0.8170257525890217
H -2.820472854383005 1.3941529931613925 0.12711826491098535
H -0.6493812887920958 0.717808720647953 -1.751308672813478
H -0.11297266087472127 1.5485929127131703 -0.18849423712016486
