37

C -5.388321140913264 -1.7229729946681458 -0.8002475767724869
C -4.489879245592974 -1.7194630818859964 0.16448660818709215
C -3.1169656587933834 -1.1871981719223286 -0.03822595270819961
C -2.4609770452887103 -0.739518416853592 1.162397789620404
C -1.166153421904959 -0.5255756656252166 1.0582409429484283
C 0.09151218528510897 -0.3649717354045271 0.7902944969111053
C 0.8522777658154715 -1.5601015800107207 1.0552918485331453
C 2.1766670541522855 -1.6290254974662992 0.8600129674157279
C 3.110504402839623 -0.5992853445368809 0.37035232042652555
C 4.231851631022963 -1.1110407245158473 -0.16192106600862977
C 4.503791678832388 -2.543694440023613 -0.24932192930342678
C 2.967383731694535 0.8550941179100433 0.39779595797523226
C 1.6388269965877937 1.401525219381719 0.16000690526923037
C 0.3829429126815495 0.9454086201116586 0.30263587363391853
C -0.7390080511793279 1.835441555355683 -0.05958273223866054
C -1.0241516269086064 1.813940525675662 -1.5466804823055227
C -0.4685783237220411 3.2558882875086868 0.31029347180438704
C -0.8424352898954315 3.689486952667835 1.4974704099642535
H -5.184647344942781 -1.3443971392766039 -1.7838851977247352
H -6.378369494566098 -2.1211333832779538 -0.60844048982777
H -4.72394274288536 -2.106423353412636 1.1417878040654001
H -3.0465637937703556 -0.510264893182482 -0.9094170301739398
H -2.778814228550435 -0.5353129139152951 2.1364252531335732
H 0.38456283044175255 -2.4530619644628104 1.4236640876539322
H 2.6436998621463705 -2.573197866313831 1.0914977454310324
H 4.946971307582218 -0.40394677154141984 -0.5342448646567844
H 3.6120639977371116 -3.1134636967635414 -0.6201826337982856
H 5.309734019089842 -2.736398514941667 -0.955539489577307
H 4.803059915353963 -2.9857358189124796 0.7242608639419863
H 3.695428847508517 1.2910548452442516 -0.30953810603891413
H 1.6621201739439986 2.4328283035829696 -0.22900717619887903
H -0.7195111998749547 2.76465055224989 -2.033896673768577
H -2.100988362836284 1.6114326445091665 -1.7329135432182217
H -0.41357103254523603 1.0164567724438076 -2.035551439758712
H 0.02756716862063196 3.9463873099427382 -0.36827689076086056
H -0.6548102015278654 4.7019044856357874 1.773145770389416
H -1.3432782756364194 3.024683776693286 2.205311192484781
