24

C -2.141906415854177 1.6798188828710898 -1.132015184685775
C -2.2397784021080502 0.3785668605763432 -1.0246472315282882
C -1.5756237763017082 -0.38452883269367255 0.012293417009280673
C -2.099127975270244 -0.31979604413291424 1.3664740201793277
C -0.16996278760355665 -0.6832526225358937 -0.18459465122049448
C 0.8792491043787048 -0.019266366002312588 0.2658627897458823
C 1.253620789047085 1.156573334947414 1.0590154429387466
C 2.5653866221487838 1.2744765276582657 1.1424715988622103
C 3.243069762117958 0.1788013053230906 0.40654985031435614
C 2.10279484295539 -0.6381377429215398 -0.14721821131494717
C 1.81635541454812 -1.6993995756402094 -0.8629134734565342
C 0.356374587296429 -1.8251867766504428 -0.9521350924695714
H -2.6544214347311264 2.2371119860027244 -1.9263864674040072
H -1.5306861242043637 2.220368928321005 -0.4064448879287849
H -2.8558767551925257 -0.16158487234735683 -1.75686640187501
H -1.380538477001598 -0.45269225624679993 2.1694461939217695
H -2.9225509745817533 -1.0765186525179016 1.5105713781664576
H -2.6115106601585243 0.6683641226931786 1.5494528866234785
H 0.49842728226280486 1.8151567869060465 1.5002715723758209
H 3.0696165674612588 2.066794623626204 1.6776914807634318
H 3.777803183167073 0.5764719466898065 -0.4818520234548463
H 2.573675212961563 -2.379769812536185 -1.3188506584937347
H 0.0037655535683842156 -1.8155591798509254 -2.01060665475186
H 0.04184486109408258 -2.796812571538936 -0.4555696923168876
