47

C 6.865034891742225 0.7878798379576982 1.4039224466112017
C 6.360355797136444 1.9383560305577163 0.9897281339974026
C 4.9148220381101675 2.100718232069968 0.6925915314834813
C 4.03711620286084 1.4555773090340312 1.7533168062753806
C 2.633639873277276 1.6444457967520187 1.4112173537663077
C 2.299974081047874 1.3624932923002804 0.16903709885696072
C 2.039420791224387 0.9365017843688768 -1.0591705579908977
C 1.7200733173847056 -0.41249871884703604 -1.2082828711322828
C 0.5533084603320775 -0.9973991672178107 -1.1190683752527542
C -0.6659294433584084 -0.313358116208802 -0.8401766849239988
C -1.7660472162157974 -1.057092003152372 -0.7288790969725749
C -1.7831254720162857 -2.4958879573518256 -0.8454232654980683
C -0.6024545679791746 -3.4364858528385476 -0.8178422489650283
C -2.8772917744392563 -3.195887618949676 -0.8135724814627803
C -4.271742551818037 -3.0082938586448744 -0.6875894264951488
C -3.11500258998111 -0.4642565760862402 -0.42294561386425955
C -3.1999174785948297 0.9012475460955524 0.040854193579761736
C -4.445047191187855 1.4447556793603156 -0.05019654529627784
C -2.216725637055233 1.8060925171576303 0.6026615389110723
C -2.6633704677073307 2.7390030744554443 1.6644904945630628
C -0.9592629866463057 1.9084098209981382 0.2704615413930241
C -0.5450369381620463 1.1746475519631392 -0.7506043127735937
H 7.927067778461341 0.7370120693531542 1.6026880788735103
H 6.208076034495776 -0.06758059968982533 1.532955170840108
H 6.986737358018306 2.802119233682035 0.8532048362036616
H 4.7145993742826215 1.6078624897399107 -0.28405151413952767
H 4.304101811939717 1.9560680221915046 2.7151990261308923
H 4.237963930782753 0.3618387642476194 1.8393180476843172
H 1.820182804323957 1.9737317780672572 1.9973000263194574
H 2.1482056876693 1.7422081820166868 -1.765823759301998
H 2.6009586288505764 -1.0916534704920091 -1.4374537972020043
H 0.6270507357087882 -2.023279283942736 -1.3812510866752974
H -0.23331057105068645 -3.7624361332884213 -1.7605008606594534
H -1.0337314248920981 -4.4803888065287705 -0.42118523210349107
H 0.009860534405520536 -3.2007867619395407 0.05185663509847749
H -2.624183067137189 -4.336886216894474 -0.926857842806054
H -4.82408026348054 -3.960598647480384 -1.1163118045318674
H -4.7194394106298185 -3.0296972111448577 0.34808794935556975
H -4.820358669179329 -2.2432103992156587 -1.2560286042665405
H -3.6998276105921355 -0.5122146885512961 -1.360689858258412
H -3.6254496044970934 -1.1057005588102775 0.34746918327442455
H -4.651871790315517 2.439488122967294 0.25452320457543937
H -5.219167112598233 0.8342610528810925 -0.4418473075675163
H -3.3112291775917964 3.5577552293092007 1.284593204099654
H -3.2484440404039456 2.1647020320542887 2.408090557924911
H -1.789939429075643 3.155713433918286 2.2108696579929474
H -0.09656364546734315 1.662703763772684 -1.5930731474653879
