12

C 1.901208382797977 0.3618231573853276 -0.7608267546880204
C 1.1414219170297257 0.43763359778890826 0.30929365317545265
C 0.2306138130963341 -0.6743895313802097 0.6370689550861379
C -0.970933478840495 -0.7249724986267739 -0.23711716540313962
C -2.016561676128936 0.055085100681775724 -0.010618583581932621
H 1.8846721266592068 -0.4995587292223457 -1.4227457431603645
H 2.5768068160114104 1.1658620706903384 -1.0205384476423502
H 1.194617673581164 1.3081964193634383 0.929743663750785
H 0.016091952441200798 -0.7982263144361448 1.6979853622775207
H -1.0165595823997835 -1.4020552613539774 -1.0791426764828929
H -2.886526310952285 0.011444712137282152 -0.6519616284802607
H -2.0548516332955824 0.7591572769723344 0.8069508480772055
