24

C -5.7099331928944235 -0.03920950221131966 -0.9008503840119648
C -4.449163539934518 0.2037679859947859 -0.5231610375807703
C -3.542023346066044 -0.8468345283113323 -0.04362842855049462
C -2.567291203921179 -0.29559108269985235 0.8835947751476588
C -1.6185200396024249 0.439345266405975 0.3437173016088527
C -0.6493753306983528 1.0739467728663479 -0.2911167699474812
C 0.45008035991247536 0.2672958069571806 -0.7080281726006776
C 1.1849384732195387 -0.35001773796127245 0.2034022343268381
C 2.3116350069979874 -1.1850907581600676 -0.0953972198861375
C 3.4220302905323243 -0.5563207655352786 -0.39803942966139627
C 4.516268170687017 0.1562634106568789 -0.5946984551716775
C 5.28540651524363 0.47401357019542933 0.6004797485264509
H -6.3720446484613875 0.7347863762472906 -1.2520740278559679
H -6.096899196232631 -1.0436301170093567 -0.8591128127103883
H -4.116381706133596 1.2347166061334705 -0.5873984622811161
H -3.160742268531673 -1.523639234199698 -0.8038892244389305
H -2.484857841353046 -0.3840341592851313 1.9325896950899533
H -0.8389388842445213 2.103193835117198 -0.39748049464067003
H 0.947345532427066 -0.24014912437879618 1.274717517756035
H 2.3969400461678414 -2.236218942371382 -0.11095617940676686
H 4.677644633830846 0.3978246684761926 -1.6072151419942573
H 6.168971601380604 1.1230192972297481 0.40732537981624506
H 4.625220911516328 0.991677097635807 1.3556588774566265
H 5.619689656158826 -0.4991147417928742 1.0607961217462325
