14

C 2.8949997757871846 0.15950277142120878 -0.056465813946350654
C 1.8698866187892806 -0.6193035987191846 0.2581306613618595
C 0.7109211392995186 -0.12352231149577526 1.0339807358868298
C -0.47322383731954965 0.11620167673864919 0.16531119543899686
C -1.6527550908303235 -0.22784213159013803 0.6586238823713049
C -2.86553678361935 -0.007991722538012102 -0.17123427725193935
H 2.914604704230638 1.1922458120577752 0.24826447905150373
H 3.7300109632445713 -0.2204613251338756 -0.6223936001625039
H 1.8429322296129147 -1.6644773355457532 -0.04642304959834551
H 0.9576169398568433 0.7451529954048842 1.67556461847935
H -0.40182908659746075 0.5434235048152681 -0.8118867977118791
H -2.5754067433281356 0.09976329196599432 -1.2351523996574656
H -3.522085317492354 -0.8924197507344781 -0.04318861141627208
H -3.430135511633964 0.8997281233534659 0.18576333658599065
