20

C -4.054018014420563 0.4006806448065182 0.1236556308908548
C -2.8558535079719505 -0.16085329015785968 0.1806152729608757
C -1.853423573526681 0.3781966297674699 1.1235892684686388
C -0.8641169051555544 -0.6124851596681437 1.5661650857393885
C 0.36732008612969375 -0.575181931857792 1.117686479441131
C 0.7466597134969647 0.44385161424136244 0.1869715875144946
C 1.5345712688542488 0.06685012604082728 -0.7894238907899858
C 2.3959129461713387 -0.3866885858043251 -1.6749455933319388
C 3.799707548702899 -0.315801109261641 -1.2895560503839854
H -4.278813108787222 1.2453357002805838 0.7690814186657925
H -4.811026229804299 0.02576993830231877 -0.5599213775885319
H -2.658949931732739 -1.0066391629854543 -0.47872440782326064
H -2.426140048995553 0.6914405891004536 2.0454597676934334
H -1.1496845562913138 -1.373976879589542 2.262381230628944
H 1.1200308466998323 -1.313647272171685 1.4424320736721088
H 0.49728761059592635 1.467829509000778 0.15144425305165984
H 1.9422327787640792 -0.7471052430021259 -2.558105965872973
H 4.413193987649719 -0.8804108639344004 -2.0448380316007713
H 4.114910750172248 0.7638528852535669 -1.2635040157647852
H 4.02019833944937 -0.8081017845105906 -0.3104627355701921
