13

C -3.0124347225146133 0.5468035996820765 -0.3140323818452758
C -1.8945783083243635 -0.1421982424481776 -0.28786246286921013
C -0.5831884144530569 0.5104580344376136 -0.2151940591124123
C 0.5124843005030041 -0.20247310868400056 -0.19063733383537795
C 1.836113498179847 0.36006446908743117 -0.12005133500704276
C 2.931820730295784 -0.3665327650363971 -0.0959050055405378
H -3.9634665254226205 0.07785949407282937 -0.36661606402175556
H -3.02432759066746 1.6467242588017474 -0.28291132357817256
H -1.9574829849881905 -1.2221912427836998 -0.3214766416997566
H 0.4411438851183649 -1.3015937558223714 -0.22518008758275843
H 1.9358258974818816 1.433532721372136 -0.08508086016849134
H 3.8988008857731753 0.10489931193490368 -0.042602194366701575
H 2.879289349018259 -1.445352774614101 -0.1290899038136539
