17

C -2.7753043262813972 0.5464152070228826 0.13139294779636024
C -2.1181522800072594 -0.29779090539647024 -0.6479545770809844
C -1.1076729082364374 -1.2386084550010217 -0.05957988165991993
C 0.23159850164565016 -0.5693454063388221 -0.0676764964136561
C 0.42649784561128834 0.7367650607564264 -0.10393586566254141
C 1.880580783661353 0.9531211211404929 -0.09791356611662787
C 2.4844598991425073 -0.39241531851005906 -0.053756076133522464
C 1.503248875757885 -1.2795055426023871 -0.03630948061099234
H -2.5924363369359407 0.5645439972616765 1.1799579262473248
H -3.4931641678811465 1.2062852823862333 -0.32911735299446526
H -2.2917252906348793 -0.3281036754822255 -1.7087474735209809
H -1.3830740856461676 -1.517751010682472 0.9888703045583705
H -0.3175883171720496 1.5347998757624024 -0.13339613836462014
H 2.1793405085729933 1.5339782029131546 -1.0009822089495717
H 2.157061475024395 1.5250658490110205 0.8343273074184482
H 3.5434768852800844 -0.6113421975499369 -0.03843954669978831
H 1.672852938099117 -2.3661120846908976 -0.0033442882013899554
