19

C -2.321332166938751 -0.780801253597816 -1.1009432435362718
C -1.6131854721301255 -1.1897722478827422 0.001137642344296137
C -1.0661029251498984 -0.15861034281690586 0.8667833966647717
C -1.0801836729632162 -0.5255051392699682 2.2881674571477175
C 0.13411670966838207 -0.40659616015328676 2.775150433936219
C 1.0173861976300018 0.03728838457624833 1.7316709435051811
C 0.3360114568421398 0.19214694566135604 0.5747592823760379
C 0.890418540639294 0.572788164713706 -0.6241466764907215
C 1.4089066169202151 0.9556097520730887 -1.7751928060058584
C 1.9863818969388465 1.3700498199605553 -2.99798071090045
H -2.4167223964647313 0.3099872541581288 -1.2300196188836072
H -2.7616019347781515 -1.420254400258595 -1.799621510931619
H -1.5174680244452334 -2.235602956260177 0.14476287345938502
H -1.924682301903094 -0.8649715875541842 2.8939723901278507
H 0.4190384878832747 -0.6089359138364785 3.82329735748738
H 2.080364818063793 0.21696475331929327 1.8717986606411046
H 1.3016348201656078 1.2785923725000796 -3.8742073530031775
H 2.888200819091868 0.7792274276033826 -3.2213700526247093
H 2.2388185277086725 2.4783951293827062 -3.0001953073768832
