25

C 5.929673340286674 -0.5210672426793798 -0.13807853465455955
C 4.816666483764806 -0.2708935685874183 0.5134930149302216
C 3.9523720316868567 0.8512553873577332 0.05842321494864055
C 2.6585997944321833 0.732406011158552 0.7815982369290086
C 1.590684522147195 0.43159264725778823 0.09375888210713776
C 0.4255992535297474 0.4752509471314707 -0.4485026585129676
C -0.813698543221316 0.41534589686208545 -0.8828342879641009
C -1.6364498934099123 -0.8153581674332849 -0.7437662306778283
C -2.939278406549035 -0.5090153868983046 -0.05789686166105183
C -3.3986597481414145 -1.005697430905774 1.069623630301506
C -4.728776678696463 -0.41878588161723207 1.3683144186810088
C -4.9572950677067285 0.5027587159907257 0.2175851797429068
C -3.906108323874654 0.4366972410929996 -0.6010767331388183
H 6.599772351086238 -1.3432738924857734 0.16522075146917106
H 6.224727167694085 0.0721988628562789 -0.9939660985493532
H 4.565402941201862 -0.8922620926526952 1.3626625535999484
H 4.460560314148515 1.7889551946037512 0.4052613914711343
H 2.6703594918417415 0.9009919900121083 1.8366270615137397
H -1.2746437397608221 1.2709941323452678 -1.3594585912170558
H -1.1156622281278614 -1.6035944313268478 -0.18242883322386066
H -1.9344158237169606 -1.1655951164856235 -1.7711109921911825
H -2.9232699938209117 -1.7290623423762665 1.7151135949083902
H -4.574807663233687 0.25285527728990154 2.2602669342797803
H -5.834407589914687 1.1173421812302624 0.08125972704610747
H -3.8569439916454615 1.0259610682596756 -1.5069576399090387
