17

C -3.3681883369109324 0.39335582058380997 -0.43943791972042023
C -2.2067872781946725 -0.15816362836555398 -0.7401605968301738
C -1.6361737148244195 -1.1296117345853967 0.23627489127412854
C -0.8738123623386679 -0.48731672017662847 1.3125628043511786
C 0.19971912472305486 0.1488571519358745 0.9411438354163051
C 1.330901688245352 0.6692119952365888 0.5030626796695363
C 2.46628029953362 -0.2004632954052005 0.4517489017571263
C 3.6255072738877447 0.28265360371814774 0.016740936705716625
H -3.8013315278276 1.1007157367075782 -1.1324182899050814
H -3.908992494771397 0.17027589408122668 0.4707743523590521
H -1.7154201068153883 0.10188298294918556 -1.6592192092616538
H -0.9900132827862836 -1.8684571692180796 -0.31026918766021594
H -1.06513440591418 -0.46437353066515263 2.3553327085412663
H 1.2418264105136678 1.684591702399283 0.24141260142559579
H 2.451548731130994 -1.2379309519029333 0.7451697162271665
H 3.7290902772681287 1.3129602417029391 -0.2976028060204842
H 4.520979705081032 -0.3181880989956301 -0.04748175527857929
