17

C 2.644560702391154 0.6277180728956289 -0.6116895246381391
C 1.4520994443199797 0.10521380763435514 -0.8421074799804423
C 0.8166482561543733 -0.7214620506899251 0.2282283552781623
C -0.10196567601550521 -1.727049661625205 -0.2903674564465926
C -1.4007149247085728 -1.6092322568919446 -0.6407499020938043
C -2.2298849709122797 -0.3886214040099759 -0.5789385649319861
C -2.0112305912238373 0.611361002078016 0.2571566544031032
C -0.9414064055143591 0.7293371014335618 1.268984281201636
C 0.2590501161985604 0.17165935691992804 1.2707747479959006
H 3.1189317120073383 1.2283037779223351 -1.3747297579238955
H 3.192609409758838 0.491583218793388 0.31309339877412373
H 0.9725155382803502 0.29013966742423103 -1.7945374526830833
H 0.24763978570889844 -2.740668454601835 -0.44022550768520663
H -3.0643107109259997 -0.28013710894076826 -1.2388657233795695
H -2.690957176927594 1.450364311021172 0.2053740044635483
H -1.1696890006303229 1.3678287656795567 2.1369987410823335
H 0.9061044920390202 0.39366185495749045 2.131601186563887
