41

C -4.196702853553001 -3.494069436496056 1.5312721348468672
C -3.4616486184151167 -2.870269650512151 0.6495450790447984
C -2.0133114211660654 -2.6826020046304158 0.8744600822315046
C -1.1905032432400828 -3.4254006261332006 -0.09774641315293273
C -0.3959163539033439 -2.585680828105091 -0.732513068219705
C -0.6484966030819026 -1.2512839279195933 -0.21737791264344106
C 0.01748289168653184 0.02623271011683386 -0.6446151225656128
C 1.5030176822449877 -0.10529007205567442 -0.37974374023375684
C 2.368470156238837 0.13335636387138528 -1.3156629644097086
C 3.7741543539644553 0.07420405747488992 -1.2841267374334628
C 4.385781344288983 0.3914419515019024 -2.4866376279183227
C 4.667133155143472 -0.25316155408472807 -0.23349378250159497
C 4.494042767111703 -0.591189790355805 0.9994754970996986
C -0.47824064365419866 1.167776474351143 0.18228574033363468
C 0.37741805189297006 1.746956329884544 1.243597683852023
C -1.6933877457250308 1.6260225520694724 -0.08283839547369407
C -2.2559089911112467 2.7552352166386256 0.6961158643606987
C -2.5007145429175868 3.9565566879499796 -0.20012943772332142
C -1.5802372228585007 -1.2865306951636457 0.7124582132645267
H -3.7471197950140493 -3.8776360026309917 2.4326325260784745
H -5.252806919475526 -3.6327055996440354 1.3732495787597556
H -3.8991619223452796 -2.484742467289678 -0.25015827901038606
H -1.1746754600284894 -4.492902258887823 -0.3177390499660853
H 0.3245221746954716 -2.8454479603579315 -1.5104597333381966
H 1.7439260944176356 -0.39837223645948105 0.5985323219883377
H 1.9365819065080847 0.44081629111526255 -2.3275392173196994
H 3.7749456948042726 0.6484032057586366 -3.324337879965169
H 5.451545175442907 0.3805711091174075 -2.583752400335255
H 5.7857825893885195 -0.2182304775800234 -0.5106476678043738
H 5.3864018710945345 -0.8087763860340087 1.6555753432522182
H 3.561190631646783 -0.6918587340364482 1.498188303502582
H 0.22469919807684302 1.2841349735032643 2.2417006362267418
H 0.2579862215566358 2.833715695358265 1.28998197227512
H 1.4512567693141651 1.5749364597175748 0.9867667096496802
H -2.3160927751692664 1.1974224681456629 -0.8677385145116256
H -3.2976630848719988 2.4372786420868247 1.0315478202273982
H -1.6845043078469248 3.0145818655922385 1.6009346955896195
H -3.2400886188500917 4.616841397157284 0.2882742202583193
H -1.5391797607847415 4.47967220985868 -0.4025096936691547
H -2.929772070465558 3.6595659827119227 -1.1709520251657095
H -1.9902057743246215 -0.449571935600053 1.2887564468206478
