30

C 5.941135246782829 0.2589421548236359 -0.8162058585806272
C 5.856307350754862 -0.27093880477689947 0.39643522987372615
C 5.24220467648652 0.4694956274343834 1.5025906978957393
C 3.9991081916423132 -0.08851271478528429 2.008568673694218
C 2.902159090372527 0.300997240557149 1.4003419760895277
C 1.8792003613528159 0.6614452067689971 0.6631353515659889
C 1.5948134098130793 -0.15491444548359948 -0.4702712445882566
C 0.37745822038745364 -0.1794786121273802 -0.9716945270912868
C -0.6542846478803303 0.609184811067111 -0.38181875808545196
C -1.7256292371179334 -0.03623801047433542 0.03431751175591671
C -2.7719602214557835 -0.7712695617951671 0.3282915167093108
C -3.748868212213651 -0.9384373099996441 -0.7450707119105225
C -3.847416649350987 0.33428453100753025 -1.5078050254110757
C -4.780738098908574 1.2027350232459066 -1.1616994136370726
C -5.71231818673761 0.9439095135312524 -0.05443472440099022
H 6.409940768391477 -0.3263671483554237 -1.6270064540107798
H 5.550333060347782 1.2496573880674473 -0.9832578173189305
H 6.244076125295815 -1.2650035738956515 0.58068204351154
H 5.938884583371172 0.6291267553246511 2.3451984749226993
H 3.8217779950676283 -0.7676912739840671 2.7957958721936533
H 1.39676288480017 1.528890168651154 1.0194776143574058
H 0.22376484884503822 -0.8199285269944969 -1.8340321469791854
H -0.7141539876608364 1.649103937263647 -0.2157728688979214
H -2.7665025644030723 -1.149209155749281 1.3137413161273541
H -4.756522414910601 -1.2208438541030235 -0.39807260272855877
H -3.144797277897471 0.48368277448172153 -2.3119318323001288
H -4.84476650387598 2.1196806296709396 -1.7182047781561511
H -5.168571887345559 0.7897891614081943 0.9209812424888529
H -6.349158967222644 0.04311051269609248 -0.22090522392065137
H -6.392237956730829 1.7860786236864072 0.108626466831712
