15

C 2.2921846882561128 0.2576335062208276 -0.1889325939583987
C 1.4721040823815323 0.112788179409259 0.8354157395452435
C 0.31037094958343264 -0.8242412338471704 0.8215929575810719
C -0.6035315366899325 -0.514113162612078 -0.3400290643143476
C -1.1778305695020772 0.8701301472784633 -0.3261852396198018
C -2.0711609457717266 -0.3059124908732039 -0.07068238252306644
H 2.195431895863759 -0.28525449344808507 -1.120566104385568
H 3.108470825513036 0.9524528652689874 -0.10640250097403153
H 1.640862170633382 0.6916575561163072 1.723656856215934
H 0.6675271952374778 -1.8697886662722292 0.7713345432546508
H -0.3906788732239527 -0.9963666279650758 -1.3062026184968745
H -1.201792518198192 1.3710855458968643 -1.3174974896447567
H -0.9749365558451167 1.5268160138511542 0.5467867149445732
H -2.8037691517455134 -0.5035133767001104 -0.8660417978785311
H -2.463251656492282 -0.4833737623239283 0.9437529802538827
