13

C 2.24055663707874 -0.785763852457363 -0.526857536652707
C 1.488717366183887 0.2856042380581321 -0.4723955401769649
C 0.6440962319642347 0.6488362129518445 0.6952200609749757
C -0.7557202398465815 0.256348080918284 0.5221442944528765
C -1.6380474922757293 -0.8046188952056861 0.7023387365307536
C -2.155210957745041 0.45550795210091927 0.13877143583263934
H 2.825998917024996 -0.9902571246080638 -1.3984416934555945
H 2.311819657508002 -1.5144771926997218 0.29374333913547945
H 1.4670748675597565 0.9598624238158098 -1.3179847719597098
H 0.6989544973687197 1.7458989868448687 0.8472630266290845
H -1.831829696906318 -1.8160772539803594 1.0187084262230168
H -2.8332476469128625 1.0573914425488071 0.8089385876773421
H -2.463162141001757 0.5017449817123114 -0.9118433290571638
