23

C -3.404672009610548 1.4010382786332174 0.5590049140759249
C -3.0660180079718193 0.1252672444182333 0.4729986788640179
C -2.5271054488289706 -0.44372561709423997 -0.7691227879683037
C -1.1345440507744935 -0.9377420537963459 -0.5873571564497931
C -0.023597387729634767 -0.5395737329980091 -1.1472228839615033
C 1.1252527181352754 -1.3242296347853035 -0.6617736395590296
C 2.1640378680337062 -0.48764925001183973 -0.012931389808978394
C 2.2381983036694284 0.8107401187232189 -0.23039418163876113
C 3.283036243069782 1.629261493207472 0.4271127035289289
C 0.4969491499319013 -2.2658856398654934 0.2922900687245991
C -0.7926743584739048 -2.0230121197090023 0.31490818569024565
H -3.3102083424856574 2.0990453856143216 -0.2621389977419158
H -3.8049614495573083 1.8193945640303726 1.484904800246627
H -3.186267586352321 -0.5202946068384164 1.334500047597164
H -2.650921191476158 0.193800335888432 -1.6494331034601717
H 0.03383043849048301 0.26981938896506846 -1.8779585503166585
H 2.8535401329086776 -1.0186153839060437 0.6490910443712858
H 1.5228160083127784 1.2596614838663949 -0.8955179381041481
H 3.7374031006885504 1.046407802194817 1.2324863731726963
H 4.060236582657161 1.9702128280687772 -0.31836698754279963
H 2.852293489992573 2.57486519375716 0.8337969697271479
H 1.0239686765238036 -3.0405474836607644 0.8839495187360786
H -1.4905928791531742 -2.598238594701877 0.9558341184308378
