17

C 4.002889434562007 0.23527827797045459 0.38068395450527975
C 2.6730100399502845 0.2343732086363891 0.500744549888625
C 1.9392134996102408 -1.0637463106002356 0.4837106518610807
C 0.8327019672392696 -0.9184147189948004 -0.49786057238416387
C -0.3900726425419648 -0.6227828053845771 -0.16058279723443414
C -1.4541989115016052 -0.027474411945623504 0.28320005166141377
C -2.5005972523580273 0.6992818132221034 0.5571161992672392
C -3.8454214547245233 0.1778498786699254 0.22963736936646292
H 4.546164816060508 -0.697896603666484 0.27172387487316
H 4.569331393682041 1.1455337639057532 0.3879441799286191
H 2.1505412925738163 1.169928364179943 0.6080155900887572
H 1.4687183257970422 -1.2262664142230713 1.470552462322128
H 1.0778755223841332 -1.0702230503079648 -1.5403513100621051
H -2.4458037703481166 1.680488195857789 1.0186312246682385
H -4.151063115628842 0.6523566269588045 -0.7287274176097048
H -3.8882487869781746 -0.9296684372919347 0.1937437088822621
H -4.585040357778065 0.5613826230135341 0.9858312091447433
