28

C 6.095395202455874 0.9897453783920582 -0.3360061287680052
C 5.179056075403989 0.6854170506536734 -1.2265719852167276
C 3.766237430162984 0.40054161146602885 -0.8633851290387448
C 3.7407071406084476 -0.3356507295842932 0.3900831623695971
C 2.582508174782067 -0.3784726936232597 1.0083421687611596
C 1.3583256530703505 -0.4476648874327496 1.5013619546920802
C 0.5653549968178335 -1.5365052854943353 1.0369412111601013
C -0.695764614005615 -1.3975689554712114 0.5965635943547148
C -1.2634236111063977 -0.0626612749538495 0.6011876638617653
C -2.484195838676063 0.1530760830601355 0.18785142117483747
C -3.37035593901208 -0.8694972330226303 -0.3001781827384034
C -4.600415684081508 -0.5049202484090123 -0.6932152183983185
C -4.980108057425773 0.8989976578940202 -0.6086812786559026
C -6.170274444948872 1.3040274304585258 -0.9806406686077276
H 7.103703632238848 1.1881298754766643 -0.6416501970332178
H 5.827557832182695 1.0388290908810516 0.7039613504420421
H 5.457448862016751 0.6387659730844958 -2.2661548172347152
H 3.141616335635137 1.3181208995188838 -0.8604351035202333
H 4.504107634163624 -0.8535813476757754 0.9010197123871193
H 1.143474219341899 0.3256614630622944 2.1759573918401576
H 0.9889709243910403 -2.530708924823618 1.0337987783567113
H -1.246631800876816 -2.239293357936045 0.26033537154111774
H -0.6503135278056276 0.7716673620685498 0.9590628051570911
H -3.089724376809543 -1.9311238037552356 -0.36647910841395837
H -5.2972812987916 -1.2245737455857941 -1.063531528990354
H -4.2760767803294515 1.6420569569326966 -0.2320159445119264
H -6.427549694490188 2.3420424308893737 -0.9095332907252988
H -6.90234844491189 0.6151432239294469 -1.3589697252949307
