15

C 3.1670966933078173 -0.2661185852260042 0.45800959391363144
C 2.0133513922366637 -0.4215214814080529 -0.1445045048170196
C 1.5332643810332303 0.6399815835481539 -1.0114349042096946
C 0.2977218887139936 1.087292027026961 -0.9516006590124749
C -0.8725078371245769 1.5314545591919504 -0.5215796572376238
C -1.9941789101109537 0.6064953337160897 -0.5458099230073167
C -1.9295587261501637 -0.4923105204164702 0.4714380759903686
H 3.51687949084366 -1.0623708068953392 1.1021457782441135
H 3.79536496674881 0.6014478084534532 0.3576860235950059
H 1.397852580972838 -1.2963284565041269 -0.03263399048439512
H -2.933914823824212 1.211529686642362 -0.38615594252181096
H -2.0812637481930834 0.18855862891733122 -1.5752490364570984
H -2.593327728651759 -1.3413061365892385 0.13143796074841796
H -2.4055571796468045 -0.1250252456770942 1.409503242384651
H -0.9112224401553383 -0.8617783947799458 0.643673890326109
