18

C 4.119825574007624 -0.6000944811701359 0.34249178712771994
C 3.6353814032983167 0.41006350631063515 -0.33315300230021144
C 2.292677231622444 0.8902489330051787 -0.17082993243865927
C 1.467940417335895 0.3302190033920114 0.6789157469608099
C 0.13274337255898822 0.900719838544774 0.7587526577708478
C -0.8541477760368295 0.3331357329499069 0.157012162005192
C -1.9316903893601047 -0.11663697270076663 -0.4203174289132987
C -2.925418162852041 -0.7265826080787123 -1.0134829749961887
C -4.2188567009528155 -0.8112239152520714 -0.3196956019886889
H 5.16839180764504 -0.9032394051199761 0.15270082663176648
H 3.622091477155415 -1.1943620025898753 1.0801420410817866
H 4.279168451989144 0.9053312182091603 -1.0474430472524001
H 1.7779968128823058 -0.512217929669946 1.2831657689613636
H -0.015157013664813274 1.7964538904430567 1.3236661902762374
H -2.841969424701622 -1.1718778950901836 -1.989824979480481
H -4.523227414909239 -1.8756542180177782 -0.14509495984065815
H -4.991619990953034 -0.3655360972793877 -0.9985052063917812
H -4.1941296750647155 -0.30270740268909313 0.6614999527866371
