27

C 3.0424887120690918 2.6707463952590746 1.4420946069444205
C 2.9100294047416506 1.3902540202010067 1.1891167697987168
C 1.6171557542261592 0.8747496403758963 0.6605886697486594
C 1.6822098315151996 0.7696915874173332 -0.8307880317408818
C 2.2956940874648897 1.708571523984142 -1.5268127537271563
C 1.1048889527580967 -0.31502665705688365 -1.5637484630147447
C 0.4990286406452712 -1.2397714957665 -0.8614098834160837
C -0.1586913685507085 -2.068132777804759 -0.11285263534961858
C -1.5294323815173303 -1.7804168354166319 0.15844214893703354
C -2.214248576663075 -2.6137959083460145 0.9194178102646271
C -2.195172085410386 -0.5846744403482624 -0.38635096958426324
C -3.627639906221636 -0.5349521742475863 0.0564240260682825
H 2.2246843560260237 3.342264006094102 1.2693265352060135
H 3.962497112450335 3.091319570550413 1.8268643743587598
H 3.761254055334657 0.707317079808288 1.3715173853172902
H 0.8245697646218242 1.5850276042568072 0.9690803055261512
H 2.736911278598777 2.53241115761362 -0.9978971245702241
H 2.3748982083522163 1.6880938873633689 -2.5974852403139943
H 1.092195717260127 -0.48168384683729903 -2.6001424522937886
H 0.42009855121202194 -2.8927570325001457 0.22565127441432525
H -1.7211739395364631 -3.483686185607654 1.3123550866648561
H -3.2499756361728642 -2.4751866316355704 1.1749933745320873
H -2.1694742541585277 -0.5906683294846897 -1.492687628076223
H -1.6472355008874255 0.3219967396008967 -0.06178399628849474
H -3.7142063128261356 -0.5014940200946774 1.1664209334969717
H -4.17962013867613 0.32097322086131097 -0.3869162882738823
H -4.141734326748453 -1.4411700982908857 -0.32341783459810175
