18

C 3.0417090286025794 -1.1327906890740003 -0.34972003977441074
C 2.9643818925948757 0.16943584726320984 -0.4633523308274181
C 1.6648944950324474 0.8557084421028969 -0.3880266371693948
C 0.7889897820817097 0.3367429622335878 0.6783119598531465
C -0.32918924175648284 0.9577682656928933 0.9173668071549541
C -1.5742229379555197 1.4075390302175042 0.9760683117944818
C -2.5266058214237765 0.8445978465436035 -0.04840422751107579
C -2.6570982087226307 -0.6251383540698376 0.18693139795611882
H 2.1671552454358607 -1.7451137615448093 -0.19844512480609078
H 4.003079033361049 -1.6197376340368306 -0.40738592573423443
H 3.849185031224377 0.778062502008256 -0.6153797497375145
H 1.0974432524615398 0.8246997587579713 -1.343138622204694
H 1.0290293188460855 -0.5273198124593725 1.2605027065310361
H -3.461289261887768 1.4041913296165947 0.001813952512890263
H -2.037597783394354 1.0199607317110664 -1.041860338505026
H -3.347352903451888 -0.7767549484044637 1.045371163683514
H -3.012056513844579 -1.1394998555554758 -0.7305681953382723
H -1.6604544072035603 -1.008843866615621 0.5199148921220056
