23

C -6.093821240994011 0.5471566084951578 -0.4671787505388938
C -4.800999520206495 0.785837622906917 -0.440757869823965
C -3.894760106566913 0.042498806924597995 0.48668965517802065
C -2.8479749673356873 -0.627780169756324 -0.31116778087368235
C -1.6304257644842242 -0.15406085268229047 -0.35347189303047
C -0.3779979451474611 0.16024048313016928 -0.20897003983454604
C 0.8021761727944543 0.658926216924143 0.02989919955160907
C 1.5985027648860954 0.09169129107922658 1.0690176322069371
C 2.7412955713279836 -0.4339295267618762 0.6885953276052728
C 3.897326568918135 -0.835992407341355 0.2468212673800503
C 4.954094631329749 0.11668749049765695 0.20482615191751832
C 6.14857769386417 -0.2642338203430319 -0.2422370818993991
H -6.504612780238102 -0.1998525229978315 0.19432324574967696
H -6.726817728275547 1.1016846720361786 -1.1502356587399172
H -4.328396640193017 1.521650289717255 -1.0784478483233961
H -4.500871190080347 -0.6773916362835737 1.0860410825466047
H -3.052138983017662 -1.5082061733076526 -0.8701000835812772
H 1.1105204687686667 1.4932803067261105 -0.5916832792679688
H 1.425240663044453 0.02277360209285804 2.1035962389975134
H 3.9107225112571276 -1.8579038400631418 -0.038559149617087375
H 4.848432425403611 1.137873073408545 0.5151481411257102
H 6.998161635619838 0.408245215726023 -0.30160732433227144
H 6.323765759325163 -1.27861102533331 -0.5705411823960855
