29

C 4.657551184052846 0.016852692702444296 0.010422199202662102
C 4.002483010203172 -0.5213873173897848 -1.0147962010761007
C 2.5774313825761803 -0.8917853056950984 -0.9758038649249454
C 1.7572179725917 0.15102221882538158 -0.2538973309978091
C 0.336526612399037 -0.2270146363541061 -0.2252033290726697
C -0.09186400085381817 -1.4043993606336835 -0.7867777459067861
C -1.418535845554865 -1.7829670727869635 -0.7734920414606229
C -2.318799230786072 -0.9373424346436656 -0.17316761815557424
C -3.7526156533265316 -1.2619846949011702 -0.11391838795064123
C -1.894938847250246 0.2674268017507229 0.40393399987884415
C -0.5667331149637572 0.6281569284902959 0.38080365639853964
C -0.42668527538518053 1.9177271019853963 1.050025366627805
C -1.797064764603325 2.2852471608946594 1.4695479254945862
C -2.609227213231036 1.3284848211456382 1.0889349563322825
H 4.155585115189316 0.21161829168952506 0.9461516603683053
H 5.711862422909205 0.2524010481017296 -0.12934882336403009
H 4.541045354065275 -0.7110998472902934 -1.960783854374252
H 2.1901398948923134 -0.9837884337106018 -2.033533058296787
H 1.8940624831259136 1.1559721524024569 -0.7158345253826374
H 2.1385840762251758 0.19914336240364777 0.7874419767116816
H 0.645772627620124 -2.0434610145112053 -1.2489369963842702
H -1.7753168709123253 -2.700504561504161 -1.2075931612058557
H -4.074095568296143 -1.4396915591955775 0.9507107063971223
H -4.349150561095744 -0.3795587006778064 -0.4669379438684727
H -3.9885235212926657 -2.1861750748680047 -0.653932538110044
H 0.007200894627552443 2.712352163180061 0.4084268174182863
H 0.18295327427063246 1.8139993322567693 1.971287724679491
H -2.060215812316578 3.2150208516446046 2.0104678049601907
H -3.6746500248800373 1.3157350866888347 1.2558026260617154
