20

C -4.113462029859219 0.5878609195183276 0.1329108481242317
C -3.1542367515158145 -0.21795869467048196 -0.26290740603559043
C -1.8149818528704902 -0.2238912936481678 0.37758272990103325
C -0.7031590484320769 -0.0032765298255779756 -0.6173903270099966
C 0.6078654512108178 -0.014766867160764056 0.047323826190487625
C 1.567146560821726 -0.8845317534504901 -0.256180980292803
C 2.869317999859608 -0.8773427676421871 0.4210818624355324
C 3.7184008922925726 0.33610814762215807 0.05027024737456962
H -3.998849391201774 1.2985781248251735 0.9459565944486492
H -5.067220503089683 0.5465627548272773 -0.3716842681814901
H -3.308423771618509 -0.9130024449007036 -1.0783491481022551
H -1.7435443349913908 0.3901498370477385 1.2745815656247708
H -0.8954969414860814 0.8890174135414506 -1.2328293354509954
H -0.7286865636612244 -0.8934318848484569 -1.3093843284870537
H 0.8143280929327237 0.7253378241238706 0.8323638672242629
H 1.3493347328532699 -1.6099246214379255 -1.033520153523268
H 2.7404141159090667 -0.9529745186082451 1.512367326778953
H 4.399845641257737 0.5028234514577141 0.90911890955705
H 4.337309209213233 0.07440190141654685 -0.8472975783272879
H 3.124098492375567 1.2402610018128097 -0.07757889747158941
