15

C 2.230326131672995 -0.9330019053351681 -0.36513866224673125
C 1.3110307762086186 -0.22671156757987912 0.2758620418590037
C 0.17021050289436634 0.2983961425038891 -0.514892400136032
C -0.3198218020054709 1.5693672883625795 0.1586819329139775
C -0.9144054408820168 -0.7234739377240282 -0.44707492417454414
C -2.0741432873294556 -0.4940139484038637 0.11638295051438725
H 3.093173285759882 -1.348411860922496 0.15056934560115204
H 2.177029526037596 -1.135705575776773 -1.428010557830374
H 1.3825095661935205 -0.035552059255711026 1.3368078500499354
H -0.5428229773142031 1.288981523667777 1.2142658915233526
H -1.2081015463354052 1.8989612689332396 -0.40322720742719
H 0.49372428111582334 2.3267906523402515 0.1040268738796183
H -0.6941148318977328 -1.6791785025543298 -0.8927967637988403
H -2.8173811276717133 -1.2658895373834906 0.13625020243108038
H -2.2872130564467295 0.45944201912795674 0.5582934268412115
