30

C -6.774839539243613 1.628161025482653 0.1840780441494675
C -6.40367199961233 0.47916959564554196 0.7374442103466223
C -5.751310349073727 -0.5768642011921747 -0.06626660742354666
C -4.482022354749581 -1.005598467420649 0.5663246106122698
C -3.393782622149833 -0.2751433088588809 0.414574641754378
C -2.257430980937054 0.2676818989943724 0.16123710188574975
C -1.0389253054447622 0.7112127739851127 -0.062417326570028984
C 0.015034245503927691 -0.17229326332480738 -0.6212773419788656
C 0.44282115620308643 -1.1821071679162047 0.3309789717680445
C 1.562504850282022 -0.9397490738437663 0.9782385657062579
C 2.742088069352571 -0.6510800648189288 1.4766553083245681
C 3.8949046906667837 -1.1116141062202687 0.7233434431110384
C 4.777461228218244 -0.06125578771423972 0.2085830175862262
C 5.309651665214229 -0.21029696085336821 -0.9987631993600674
C 6.214014338923959 0.8266487594342751 -1.5713692305796314
H -6.594030298217189 1.7916667751396038 -0.8797896780927026
H -7.2467168348785345 2.4158020990166555 0.7216403919850536
H -6.588665819613245 0.33167824199675044 1.7893994745569697
H -6.446443507076113 -1.4193508099526793 -0.18922599059360254
H -4.487893738194626 -1.9187858839272638 1.141909413301356
H -0.8672811235699412 1.7543264886978804 0.18886411986537782
H 0.8251717478476681 0.4424157265722691 -0.9913683343192736
H 0.0033198804291177807 -2.100121254158406 0.6012775723700632
H 2.684853527440532 -0.10850118389512597 2.3794862166772193
H 4.4744913016582935 -1.8468819652113944 1.3344777900706946
H 5.003080181689346 0.8195814202860886 0.7789517723305387
H 5.113046639602573 -1.075110276944556 -1.607230524101093
H 5.570426512692345 1.4214804118708777 -2.2843890627935135
H 7.014384654239118 0.3021684642913362 -2.1612483053341935
H 6.6857597601445375 1.4627602305656904 -0.8233531897780921
