48

C 7.054471090001153 2.3810578568636145 0.5529715029695841
C 6.932527165672285 1.1994505616177 0.565692658075412
C 6.818009774037595 0.2467257020082216 -0.6946000936742553
C 5.350870267582533 0.4447071084542997 -1.0684530359343987
C 4.495121315673057 0.003701002749685744 0.08989586715244446
C 4.599749818511105 -0.8253821127348225 -1.2174703601772092
C 3.2686776609950456 -0.9591881044776348 -1.8197871989324723
C 2.3065703043683095 -1.6334104551919078 -1.1443845308418872
C 1.2127078133373406 -1.6248302692383365 -0.40159888150547857
C 0.5361787170305354 -1.8174665514541424 0.7266010541499766
C -0.24883598399346038 -0.5749946157081788 1.232651444525484
C -0.7005407701480721 -0.008220808770421462 -0.05000367082288346
C -1.9287625273168418 -0.11098032555270843 -0.5741701547174781
C -2.1182059147932066 0.518626898058597 -1.9523550326821313
C -3.082520437407208 1.4399220746040289 -2.0037776859888785
C -4.106215366448231 2.3856984470089224 -2.063497085268034
C -4.952421437376466 3.1669817345800517 -2.092591936483469
C -2.9706553666103934 -0.7350494569948662 0.19783321057862335
C -4.152930566277646 -0.07067078140985227 0.6485346493089225
C -4.75182194691522 1.018833991995598 0.8434714837692001
C -4.815854581317347 -1.312513532348704 1.3971222413274869
C -3.818596957380034 -1.969318339278677 1.9768419224328266
C -3.855049598754111 -3.1735640634455873 2.798971778960953
C -2.5151831248021863 -1.3393895553565265 1.4836047561560226
C -1.3573397496135284 -1.2485551451822134 1.961170527937764
H 7.127886070313339 2.824435712894487 -0.6709095538016149
H 7.071206683316949 3.2948982418656625 1.0335680578406055
H 6.897321380344063 0.5202420669318427 1.465299951449833
H 7.542787772187062 0.5958328037752865 -1.4067036760865206
H 5.101082652567631 1.3522058266300236 -1.6087572704330593
H 3.607108127853428 0.6044510222099898 0.2827631901691204
H 4.9260177514303685 -0.6056840820814313 0.9542842014921652
H 5.166722854940537 -1.7505259060470593 -1.1661955217854543
H 3.013654157640485 -0.5345211757755695 -2.745816741737771
H 0.5283263904040906 -2.7275387932213535 1.2360007582041626
H 0.07094989551370691 0.5953555496255732 -0.5580916340354745
H -1.1601294698188975 0.7590907296394902 -2.44210991701328
H -2.399798557615306 -0.46512514563819496 -2.534461041675565
H -5.705124509036142 3.2040908742466505 -3.0430536560526003
H -4.737040933967566 4.336367945310307 -2.031755769761552
H -5.852403025506011 3.1076302350861247 -1.2893783968138155
H -4.247368418067734 2.0143383297357165 0.6046707100974097
H -5.767603049684592 1.23960277979779 1.1633141950695463
H -5.826791995315408 -1.4601549227094108 1.327253205335923
H -4.182072770559083 -2.9982133383797405 3.8354752034479747
H -4.462532939468469 -4.01167829535112 2.344075144037593
H -2.8105548365647484 -3.63580081044603 2.905604943300443
H -1.1015928252788973 -1.6614709172714963 2.9430387968916993
