32

C 3.7776650802324268 -1.8060588731159481 -0.5580653923836831
C 2.8520564488105054 -1.409799777795894 0.3188736714212041
C 2.3350268495416424 -0.050675553824671545 0.39279427730858546
C 3.3240589042807933 0.9870421348404962 0.6904226261439664
C 3.105597565221924 1.7727033474161822 1.7607928820129182
C 1.3455314766611954 0.30688960677304283 -0.6193304348121008
C 0.06174952020949868 0.06971376795651815 -0.42422301279335245
C -0.372013909349558 -0.5552097197973341 0.8137051938653962
C -1.6270982641016172 -0.7963118673824925 1.0241656647601933
C -2.673328845092287 -0.47140946015807844 0.0682426533324026
C -4.078800873483549 -0.7402290606825072 0.3013676291779287
C -4.482765092230129 -1.3006295116547208 1.407760719558179
C -2.3051004425406108 0.10461125483347566 -1.0805354384129737
C -0.9232777581385814 0.4341219479277273 -1.4500416831567318
C -0.8683532493466284 1.911617328508622 -1.7722904479393358
H 4.196895494105635 -1.1070443197326738 -1.2763965200402103
H 4.145996768600984 -2.8141132963063575 -0.5961736475285047
H 2.4721815098994018 -2.154768319919473 1.0105039707365786
H 4.2180800305125326 1.1735115365716795 0.11812294059249068
H 3.7996806100078033 2.5668310410434194 2.0434067914021736
H 2.2381227742888696 1.6636648693405782 2.3966122642233345
H 1.6829261595301217 0.775338588935537 -1.5442580960649928
H 0.3451719602977225 -0.8358396238572336 1.5935916221688524
H -1.896278776985036 -1.2664292635434535 1.9694545410922122
H -4.789926851227626 -0.4682930561542417 -0.45831941456214736
H -3.847277230654294 -1.5973592999879347 2.2021967595474194
H -5.544698891224612 -1.4850736004182281 1.5437226280891507
H -3.079477572407575 0.34733545664195453 -1.7928947680869185
H -0.6766837222590574 -0.10190512958919475 -2.390182932565505
H 0.11974211400135959 2.258382501555032 -2.0845307098697305
H -1.5507236502639734 2.060722660577183 -2.651452798797049
H -1.3046781368973666 2.5286636909990623 -0.957041538419681
