20

C 4.247288165756609 0.5491263842802111 -0.08021652135472473
C 3.387049410202454 1.2620593414328019 -0.7722573847785885
C 2.007962278971931 0.8621025851058527 -0.9493740495070156
C 1.5102693369609024 -0.2224331934837402 -0.4451295043532256
C 0.06749298119990708 -0.6073461480862533 -0.6506731487952403
C -0.6318705866236503 -0.6624005547066817 0.6267454909088361
C -1.9380105002134058 -0.8210538621785696 0.5722791452243333
C -3.2380690457447368 -0.8833903152642634 0.3968261984796519
C -3.9241951867787495 0.397053584942923 0.26711333586014246
H 4.04647883023611 -0.3734464023565875 0.416284487501292
H 5.276447305625354 0.9309734265548332 0.0015585246241182156
H 3.6934054364476085 2.1882825781332333 -1.2389135506490976
H 2.1203338347504874 -0.8931272747363881 0.14544137613473662
H -0.0030329225752301035 -1.5846933003215924 -1.1803895794948065
H -0.43460421343890243 0.1553585083974988 -1.2870981831232269
H -0.26319915623312307 -0.5939168673851905 1.6153254845135865
H -3.6141081909923023 -1.868848758865861 0.37199550632824924
H -3.284946500447117 1.1624781920776313 -0.24444042452112172
H -4.8136972093068335 0.2611271497662959 -0.3949622243953769
H -4.210994067797061 0.7420949266937934 1.2878613062608844
