23

C 3.72492369973657 -0.17800460962304548 1.585700982471167
C 2.7239031524609776 -0.7721495148687147 0.9698750447192807
C 1.368353990025923 -0.21092285512365969 1.005823737175066
C 0.6850365023447965 -0.24724105912415942 -0.315284365186979
C 1.0489444431164991 -0.7447948968396012 -1.4614431481701171
C 0.05146614399553958 -0.5493975727382143 -2.500974357899747
C -0.9559344057206631 0.09398569346690218 -1.954664274322459
C -0.6561964349240871 0.3428312597556356 -0.5416571498308063
C -1.6156886720317063 -0.36094934485682184 0.39585615962417525
C -2.999132907837667 0.13095147995363018 0.27642568461089156
C -3.462939613233037 1.0725574400097286 1.0913620191885995
H 3.6265772648316554 0.7433831445620734 2.1492188109861337
H 4.706689011391938 -0.6260931057100356 1.5331391932155285
H 2.9028046987653977 -1.686174103029557 0.4301543118058249
H 1.3460797928497699 0.829938443204969 1.4049381754434314
H 2.0118723413877873 -1.2566195229549622 -1.6144567379658008
H 0.13944300302949894 -0.8864488372654455 -3.553730694582289
H -1.8726464864494778 0.4039185265448041 -2.4435284270646935
H -0.5908058282876159 1.4255498333795245 -0.29154449652437864
H -1.2155669425443367 -0.20920202911694982 1.423493764096034
H -3.677437052550108 -0.2554323994744788 -0.47293690103891345
H -2.815444761062707 1.486788716950429 1.8566669845279122
H -4.4743009392948405 1.453525312897924 1.027565684722176
