16

C 2.6610942963894066 0.3221528909063593 -0.2906187088997838
C 2.1849575292859247 -0.8849135936596063 -0.04998226701169365
C 0.8460611110237493 -1.2486814487633482 -0.5649964302579367
C -0.19571707923341775 -0.5899353227105776 0.3487831087527764
C -1.2434043745312864 0.05232192672610545 -0.5537926776528564
C -2.2850973652448285 0.7107930389138957 0.30494122060198214
H 2.1070902796239865 1.0619847454085263 -0.8538253994871733
H 3.636881180719665 0.632446955489441 0.06691626562998808
H 2.7499682440238424 -1.6067220476865713 0.5115283139486712
H -0.6264156945205518 -1.4085160473478053 0.9430399412171551
H 0.2820879014688454 0.15048253629378563 1.0003478693392795
H -1.6467342338139397 -0.7520525945054741 -1.1999282425342523
H -0.7835629437438849 0.80896660127885 -1.2159801322633175
H -3.2808251642289714 0.7577362746145987 -0.19397549130973463
H -2.4137894695342497 0.20373887188472575 1.2853395112373547
H -1.9925942176841633 1.7901972131570323 0.4622031186895264
