15

C 3.2584903585257683 -0.1705360292346224 0.1892658901502773
C 2.274611431348613 0.5179022300651219 0.7239275654350017
C 1.1262719857907955 -0.13313053094474303 1.338756503400824
C -0.056742012747374275 0.2576562038931995 0.9279470136853787
C -1.1024597005986854 0.6818909947190847 0.2296693692797543
C -1.5086733801048995 0.00235031032833553 -1.000501728116178
C -2.6206954915172957 -0.9814624910026536 -0.6303520394808606
H 4.109825776302528 0.2976497428875021 -0.26663488829163945
H 3.2193749682975454 -1.2446054799265323 0.20351892496542093
H 2.2853643930916916 1.5960561572978693 0.7250038816576526
H -1.6037443218461163 1.5270622538947003 0.6178634141478122
H -0.7315409470786949 -0.565883425125939 -1.5045832160935866
H -2.968934321629755 -1.5625981386030556 -1.4850511699809028
H -2.225208331038215 -1.665956734009972 0.1717292784836793
H -3.4559404067959334 -0.347586524608606 -0.24055879924262763
