30

C 7.272288921988953 -0.41231620855669393 -0.6988028336306891
C 6.220016837528568 -0.873139957621663 -0.04849781113294396
C 4.898977596931101 -0.9405817791744758 -0.7152713082329613
C 3.8176663903640815 -0.34785560752293654 0.07613438650981434
C 3.5989500254159505 0.9551735508720123 0.09094035967189525
C 2.527962780769224 1.5461099149320061 0.87431303312555
C 1.3246003019551782 1.0199283975610585 0.9154255232646967
C 0.14378817063337374 0.5792017559414043 0.6722270412544403
C -1.0737111219192974 0.21402439517073113 0.36058720002522016
C -1.9722456796403638 1.0384612788807297 -0.4145837180868596
C -3.259327898061749 1.0165563018410404 -0.17909028962877394
C -3.7940304141932146 0.18090693545890618 0.8435782011645794
C -4.786155469524648 -0.6052543025919722 0.486456822280856
C -5.829701112041061 -1.2812109928626754 0.05388874746768012
C -7.11595686842399 -0.6061137362776886 0.17027458197286113
H 8.25646150004848 -0.3467327698155622 -0.24657163542588545
H 7.1731244002239904 -0.07822789405801027 -1.7330589683737572
H 6.366135356345261 -1.1976570993365692 0.9886522077216896
H 4.655208151523671 -1.988125372010671 -1.0156194368319251
H 3.1927990757929585 -1.025537625287344 0.6587193142164749
H 4.229523266591943 1.6015191008197807 -0.49236660861477344
H 2.6736008020959368 2.4595385888131025 1.4684281254424023
H -1.4390505677403742 -0.7672757563107646 0.7014969765119162
H -1.5809305100066262 1.6689687668031932 -1.1841985929769896
H -3.9370034875123556 1.648774567029278 -0.7754026402672005
H -3.534083076781621 0.07643347092047748 1.8581403876556066
H -5.586487669372526 -2.2362381225310646 -0.3258728959196997
H -7.550221648109438 -0.8097316723969853 1.1745270937354098
H -7.840922905429863 -0.9788681756359565 -0.6101643789850328
H -7.0512751494524855 0.48927004694725995 -0.008358316394447679
