18

C 3.594172145588566 -1.8674594133265734 0.7996768824499506
C 2.399230847970425 -1.7362808091032447 0.8407326128146578
C 1.3930145102726448 -1.6633737082080584 -0.260686343552003
C 0.5557475098867952 -0.41968416437760214 -0.18819625609125212
C -0.8365801551563957 -0.748155435563335 -0.7558900269619672
C -1.6316935661821204 0.5723088845645423 -0.7196707206042672
C -2.241938873992846 1.556613933793024 -0.6972275302999004
C -3.032876856928226 2.783819457383921 -0.6694274678152178
H 4.562285145114294 -1.9907008008525133 0.359473537979012
H 3.990556828665621 -1.836292579189883 2.004911399003401
H 1.862656176985121 -1.6628662783348382 1.8746978761236504
H 1.0344709134633467 0.4291426034121347 -0.7038072126281849
H 0.44079834490972447 -0.15710450917967192 0.890708689189687
H -0.8486488577465806 -1.0744819654933901 -1.776762304556956
H -1.3912769253783255 -1.408246930211264 -0.10549186866650626
H -3.6468175400692484 2.8118134322432615 -1.6053650445594412
H -2.464569924919921 3.7189419097649368 -0.6204359272100302
H -3.738529723762771 2.692006373066943 0.23040747735854356
