24

C 3.2916626571085317 0.08363537018432936 -0.08427028884038576
C 2.2971322850678098 0.20681703383592046 0.7804117976729933
C 0.9720502935142156 -0.36865538046537094 0.5312537196658066
C 0.9664325492172825 -1.5284830756473953 -0.3722899188738625
C -0.17109337748261239 -1.946548759149273 -0.8951968772662433
C -1.4404644581908748 -1.2420395088877192 -0.5694313665380142
C -2.1134048161786585 -1.8487877606856895 0.6461054930077497
C -1.1888111129834271 0.1999235462407866 -0.3648183887252992
C -0.047479883845342484 0.5995886181889991 0.1542609575116082
C -0.03209478641139363 2.095773366855561 0.2595221616184144
C -1.3517465648486506 2.465783791664667 -0.28544957163754414
C -1.997684562698985 1.3669130853362823 -0.6368024364070022
H 4.272197331813263 0.5073408198761007 0.09603673873504183
H 3.1345897101035596 -0.4670088164034354 -1.0278118590332024
H 2.4987702020319347 0.755711148454232 1.6923267728808442
H 1.9196477239918814 -2.0549005627473864 -0.6163848221545124
H -0.1801045675416927 -2.788928656413448 -1.5508528577531586
H -3.1577603063154154 -1.4594840818334913 0.6470519474237023
H -2.137612882937447 -2.9388915067178405 0.541144338459163
H -1.6205683757968685 -1.4956142186938644 1.5794020156187545
H 0.755228626257264 2.537657426555656 -0.3830612802889887
H 0.07516229057787814 2.4233989970004304 1.3126172631720836
H -1.7401409935612007 3.4852437426229654 -0.3856653829179373
H -3.0039069808911454 1.4115553808290555 -1.0680981553299953
