23

C 3.571207490029932 1.4831450875900127 -1.1338776344103851
C 3.4342745855513535 0.6339015840540515 -0.1356580817897359
C 3.6205609268895858 -0.8119347212891426 -0.3745083421644796
C 2.276743203020557 -1.4247513979552626 -0.6105676270547883
C 1.1839141096669086 -0.8448460285165867 -0.16045199422741108
C -0.14686979195228697 -1.462897911225441 -0.400873936945848
C -0.8991468996327534 -1.4853289852551306 0.842467135604267
C -1.7141970061541005 -0.4748308382411147 1.0449921051566076
C -2.5776109565618017 0.5169849136016899 1.092055911744404
C -3.8592726255364624 0.2869897109705888 0.5066206205109334
C -4.7637500800467505 1.260586685992789 0.5307127992202868
H 3.443659239303994 2.5665073040521698 -1.0105234431483836
H 3.817220562503535 1.1478335700237066 -2.126629477811631
H 3.1888873662403188 0.9788801548141511 0.8499868643702604
H 4.254101468061334 -1.022635893789077 -1.2483261665938474
H 2.1915595623782758 -2.3515190298981903 -1.1542710196843091
H 1.2102736508405931 0.08627072109561734 0.3914713632399594
H -0.6644083867557153 -1.0065093240781668 -1.23896492221542
H -0.9109671584465379 -2.183169927171208 1.6301466265773201
H -2.2012580705918627 1.3775511536996778 1.5676099517575954
H -4.159040056010777 -0.6292771527649692 0.03775768019046344
H -5.750990306872575 1.1502995309461777 0.10550756679049869
H -4.544890825922118 2.2087507933405615 0.9805206345772438
