32

C -2.769063442123594 -0.9328900626534709 1.1655477685067992
C -2.4594096208256517 -0.664425369505125 -0.09862509782584548
C -1.1359397223592187 -0.1973047321093705 -0.5232818915695783
C -0.31452755187263665 -1.2994457862406468 -1.013346837856383
C -0.9524413204795403 -2.322100814168385 -1.9252340932694187
C 0.9564134471976515 -1.4511484439195665 -0.7027598857249243
C 1.6254662708922418 -0.49933402621730166 0.1705020806946291
C 3.0615448019589087 -0.7253423052451813 0.4838436852334222
C 3.6061873122787227 0.34842614735466093 1.4001251120637574
C 0.9421391636483655 0.5079759431996701 0.6403947678941492
C -0.47897627629863865 0.7776935653102338 0.36193751804474794
C -0.5695273882024903 2.176696462880513 -0.24569729622152064
C -2.009476895323198 2.587638759007418 -0.42910028642408743
H -2.0361241153850926 -0.8141067804573424 1.954230417075803
H -3.7428239632779716 -1.2716387104470603 1.4420767335671727
H -3.2224119197603396 -0.7954976061601775 -0.8656404029853519
H -0.4096870213713716 -3.285269835674902 -1.8239234697845557
H -0.7959964861781151 -1.9694010339971673 -2.960541279832434
H -2.0066478030623167 -2.492479191393438 -1.6634869983063605
H 1.4959517588129974 -2.3186696807447325 -1.1234340639513254
H 3.192925631727211 -1.7317910218988968 0.8827159214256755
H 3.6251460481205724 -0.6393518423772623 -0.47194799232324336
H 4.688766276529367 0.2259831042887951 1.5377011413210453
H 3.445021160141652 1.3350753690813715 0.9386327755915714
H 3.0747683609222367 0.2516760904262905 2.366962114112335
H 1.4411856271561938 1.2312668278432948 1.3010645224656265
H -1.0246145170999215 0.8447595233573962 1.3329079404016737
H -0.035494128994614495 2.860600682687511 0.450912999376764
H -0.028686352132931987 2.1467815116149693 -1.1914101905359058
H -2.23515128597119 3.502335569491851 0.14682879532821597
H -2.702607800903004 1.8019128102309008 -0.033377868601734396
H -2.2259082477649352 2.811374876433665 -1.5045766378913927
