23

C 5.329606158154218 -0.1252771254831591 0.40901465474459453
C 4.01269115963271 -0.2500486481530379 0.2737425231861035
C 3.3054809965499494 -1.490796723539705 0.6947773950518099
C 2.1082776392159674 -1.6522602413310925 -0.17163122896235902
C 1.4895154855747843 -0.5906475364982978 -0.6341195240364456
C 0.6822329389435179 0.40395855124376484 -0.7493123304269437
C -0.27603468780010876 1.2796246539814304 -0.6939944360550377
C -1.2369585607291567 2.145431123385732 -0.7208748064026111
C -2.5555639688298615 1.7659159934457571 -0.29916618485832114
C -2.938812400486719 0.5041113482166524 -0.28979369066773936
C -4.266880802698138 0.09492873553033004 0.13229448010281772
C -4.579337073148429 -1.1819255975327891 0.11554433780612054
H 5.900966326451905 -0.9409654900963567 0.8335523754631781
H 5.80843849605096 0.793740314059677 0.0907424923999988
H 3.421611082120259 0.5555345274804532 -0.1493550342634743
H 2.9698387996304305 -1.3417555940904506 1.7445362019001478
H 1.7775000376321102 -2.656517642845854 -0.3986961178807417
H -1.0266287173074466 3.1397183810159928 -1.0613068020330727
H -3.2492155935069165 2.5143065021010296 0.01587107098668488
H -2.2629875748537747 -0.3022574181580777 -0.6043255871273848
H -4.981454199518784 0.8127360511699805 0.4516071792279604
H -3.870814399958289 -1.9401183606838404 -0.20563085768579523
H -5.561471141119401 -1.5374358032181077 0.4224830095562865
