19

C 3.6722254814942294 0.725477267837231 1.4213990094512148
C 2.906587593681696 -0.3284454734735817 1.2020267887365674
C 1.4683080598117897 -0.16248735174592024 0.8846249512249665
C 1.1503449986279222 -0.8827616562502456 -0.3864906915320685
C -0.27784870046076304 -0.6991959098319901 -0.6718457272812245
C -1.4417619954434098 -0.5646546364187858 -0.8909154007039388
C -2.8734967804278897 -0.37638553121124674 -1.1726440523504755
C -3.3327289354992216 0.8135604237800271 -0.36672287042951074
H 3.2812803301006546 1.7462543802202681 1.378183762284593
H 4.725478538393298 0.6202553995719144 1.6545606414651761
H 3.337020577432813 -1.3119744345073583 1.2558230449962513
H 1.132411376695089 0.873534873888657 0.9301213386032894
H 1.7734396845643081 -0.4644221421073132 -1.2116666221839083
H 1.385827858056746 -1.9680429548949507 -0.21377088168295102
H -3.02722106936559 -0.10940303045919761 -2.24559808038299
H -3.4638744294554167 -1.2589761531269072 -0.8612950206899297
H -4.387003412059799 1.0595435947046974 -0.6150762683125024
H -3.311661592153688 0.5826445230916559 0.7341028134367042
H -2.717327583992122 1.70547881093322 -0.5219694532700625
