22

C -2.887808769035685 -1.387907347172415 -0.35217709461503577
C -1.7343646753336897 -0.826510569568375 -0.024209377785000923
C -1.2460279682219235 0.41055881497178837 -0.632052069955208
C -2.2344028554416338 1.5391392527266707 -0.4526452536193911
C 0.06840809499475618 0.8567972920932327 -0.028647677697244894
C 1.1360853989840738 -0.19992056039855066 -0.2264615777175773
C 2.4302876080985936 0.2596585130773935 0.3773407178937225
C 3.4739752684561607 -0.818605035007444 0.16200394563909945
H -3.55176127504488 -0.9554866824231855 -1.1054929506332893
H -3.2380691043159238 -2.3027241128887357 0.10436770220826536
H -1.1301136556621652 -1.313855619192445 0.7316040637255311
H -1.908029646782637 2.4118603394038067 -1.0882444498561716
H -2.2429139019681092 1.8351226807028864 0.624796752974342
H -3.2458143474759167 1.2801317250911446 -0.8245601205695287
H 0.4218926526786969 1.8169126863463176 -0.44362804204178347
H -0.05872861519147643 1.0059708335788546 1.0781633955971368
H 0.8518562763506031 -1.1440067126367586 0.2830077057729806
H 1.2001914202677673 -0.41030751117216036 -1.298683517177368
H 2.7419444877206063 1.2429581657721847 -0.004329630912956151
H 3.2744808245071444 -1.5959237302211287 0.9402891357827827
H 3.3839424478158584 -1.2619658294920273 -0.8669122518108082
H 4.494970334600075 -0.4418965935911555 0.3563346830478533
