47

C -5.854284198492177 3.1159955979313825 0.4380293218370992
C -4.924955438618316 2.1561231630022784 0.5449561026267115
C -4.063188025532088 2.0926008995750514 1.7113220945520569
C -3.162538964903465 1.140630385634462 1.7868561891785042
C -2.9824009609304345 0.13031781689732552 0.743315666611485
C -3.081692536682959 -1.2693136146570088 1.2478550761596665
C -1.8106898264249989 0.3672659566038915 -0.11927288230958327
C -2.0461830475069536 0.9133478035006758 -1.4721689126287911
C -2.937375739857573 -0.026787838560417936 -2.2927765861258713
C -0.5805947942251672 0.11138622473901834 0.27261735548224825
C 0.8154940973243262 0.2218148659139552 -0.31219293340609483
C 1.232283717985602 0.5952145294204596 1.1071930971222195
C 2.525740219984507 0.0803678367027531 1.5722939968330323
C 3.595247854620492 -0.17403406841867927 0.8945061389742397
C 4.843558824928393 -0.6880093746939148 1.43197262175635
C 5.68953977375794 -0.7927381785532859 0.4233243478161945
C 5.043650790318765 -0.3591029542751444 -0.7990804155899032
C 5.681572718718589 -0.33209368376928905 -2.1578470381698955
C 3.798313175048996 0.010150500855614615 -0.5251678109934754
C 0.1317592922332242 -0.42120007618464694 1.486706335283152
C 0.6531002782777712 -1.7896026138889685 1.2474373320252443
C 0.10366249576848066 -2.66685320641072 0.43198282753905054
H -5.930083234565046 3.8263619265304483 1.2453833667093466
H -6.480969764241371 3.141977974996924 -0.4362565583143265
H -4.800303136448822 1.4143553308861128 -0.23215804414638638
H -2.5251012833666535 1.0957030081827035 2.6522336951922876
H -3.931884119004643 -1.44462148939463 1.9080374770729474
H -2.161847061641162 -1.47405601710541 1.8636700479234145
H -3.097376423354368 -1.9542736969850607 0.3694963876800065
H -2.5268449882666935 1.9125046661839036 -1.4530921972345188
H -1.0799590602579119 0.9292634891664044 -2.0109018621231627
H -2.825047412744877 -1.0770954208012489 -1.9707598023096176
H -4.00793908900383 0.2641611210058697 -2.1837512639932712
H -2.6521800536238933 0.028453910321015005 -3.352109600987639
H 1.1836134911368457 -0.7558075146997912 -0.6640076278041591
H 0.8445463151501694 1.012266401519799 -1.058252799872291
H 0.9730996993180888 1.631035106017415 1.3365173607462342
H 2.5690955736938585 -0.11006366952333944 2.662189592390247
H 5.093210987259371 -0.9544749164011381 2.4618617606890933
H 6.715903016302999 -1.1484019020873553 0.48749825457050716
H 5.524113475980049 -1.3182014831244682 -2.654848611472762
H 6.775758849103798 -0.13604148375095548 -2.025097540702238
H 5.266690095989381 0.4574840055958925 -2.792166669719364
H 3.1297647259006345 0.37925234925197626 -1.3026153193500283
H 1.5541624641713663 -2.090130807594414 1.7842022051643345
H -0.7868812773297298 -2.391668882709073 -0.10872345475574959
H 0.5064385040497401 -3.653461976846032 0.27977099992115695
