20

C 4.801742218553522 -0.809764568737195 0.8144036511605378
C 3.6301047646376268 -0.3953831211096676 0.3695841584724452
C 2.6597134069105364 0.20861276873599968 1.2683789367529898
C 1.4781994294277205 0.6365410065603171 0.8686235846864366
C 1.0945786966731688 0.5217612488640673 -0.49403652141724924
C -0.1284320083436395 0.056267984671468284 -0.7120314592254114
C -1.3682664648968164 -0.33618931661194557 -0.819066658784521
C -2.3717944711943795 0.7355905287904487 -0.8065476186960489
C -3.47215514803621 0.4089605027510742 0.13919484298968954
C -4.719801107976441 0.8058872070525351 -0.07604730291286253
H 5.10640224983223 -0.7292954588763657 1.8446409192036457
H 5.514531389070553 -1.2579259461048542 0.13234095518829062
H 3.3826766625342737 -0.5036257387615306 -0.6755185621936733
H 0.8203719859801395 1.071231645328177 1.600566689728335
H 1.6045212841867238 0.7408375892293605 -1.3900571391431182
H -1.4998881810496778 -1.378182702673548 -0.9003818508461151
H -2.8218637636170727 0.7932088615420314 -1.822618090436088
H -3.241624758558326 -0.16488475158759913 1.0188766072086584
H -4.966542434662515 1.388379099085056 -0.9643715826413369
H -5.502473749471361 0.569142081319725 0.6040664409053079
