18

C 4.077178983224472 -0.10156639548572387 0.012720969815147098
C 2.954087050012548 0.27228238283517514 0.6092647628387653
C 1.8431087575232312 -0.6427621784402144 0.9633791698418858
C 0.7559244689203659 -0.6279655735509241 -0.049384688097279326
C -0.5220042266162533 -0.5276131964588541 0.28088232249458417
C -1.599891992384721 -0.5135843630221785 -0.7349633090910632
C -2.367513273260857 0.7537569596152864 -0.6417249394475887
C -3.663559651260039 0.6892645860487194 -0.3778151378700856
H 4.243777291758353 -1.1591551815756318 -0.2598337984205253
H 4.863721315105033 0.5706832287754887 -0.23348827477907438
H 2.8398281609860008 1.317992448690581 0.8550369276190513
H 1.0662782811432843 -0.7048097760946572 -1.0913408098784891
H -0.7970527102342033 -0.45310713542994757 1.3218900684652193
H -2.2758795762380455 -1.3678259422295926 -0.6660139939994969
H -1.0980383225679171 -0.5780437063049979 -1.738684601289892
H -1.9035754860837057 1.7238773471044242 -0.7819518913783141
H -4.240117111666711 1.6029016195196704 -0.3059322521340479
H -4.176271958360891 -0.25432512399653495 -0.229066853977998
