25

C -5.1057418945045185 -0.8403598923628463 -0.5839635557083541
C -4.54189571374705 0.04052929196796642 0.20510706569198156
C -3.1294788492217855 -0.11998551417040416 0.6530903879251063
C -2.2257113810793925 0.440847032765515 -0.3919587293030828
C -0.9964458024512874 -0.022073577883413697 -0.5483126259080819
C -0.13918492613231864 0.5230724206739891 -1.5531680669587304
C 0.8737001893717196 1.2345200966065901 -1.1054323446018666
C 1.9178813757898088 1.8429923539607422 -0.5749937201198816
C 3.048208800132813 1.0136844702093435 -0.29910180251018986
C 3.0216604250509387 -0.002167364907194205 0.5484843421033901
C 4.193498972225116 -0.8151357838694566 0.7959089336960989
C 4.133043579741447 -1.8112542003434595 1.6394703853854828
H -6.116646950612751 -0.7192156178428466 -0.9005540434051388
H -4.548056951984106 -1.7000216627912104 -0.9212956638604756
H -5.113337293342268 0.8970315878075029 0.535022990344346
H -2.9448898881224963 0.3120381578552159 1.6519832419903022
H -2.6187593585636733 1.2366179832996762 -1.01053064215662
H -0.6337639144854132 -0.8170528831860889 0.0850894416951016
H -0.17305548572670326 0.45517090124996085 -2.6040532090144937
H 1.7611359867898588 2.8742680129679554 -0.4282640494263309
H 3.982066490489259 1.2428397418560528 -0.8253946833878668
H 2.0796416286719874 -0.1975029021279465 1.0498266278757014
H 5.103567037958673 -0.5837030830449716 0.27631504948101665
H 3.201533681831357 -2.0235985490722124 2.1510623941783527
H 4.971030241920337 -2.4615410196159644 1.8732678330240276
