17

C 1.4257710579962588 -1.6415007444006393 0.31357672555326144
C 1.422948560227655 -0.399966277170104 -0.05947345437637644
C 0.5487296397728046 0.6672776460927445 0.48886976141479965
C 0.30188912222475867 1.744742891806742 -0.543098201068989
C -0.7899783826389718 0.1209823768743104 0.9350831320744379
C -1.4857777081603454 -0.5162582877147373 -0.2734705310716955
H 2.0914565970746257 -2.3551059369459684 -0.13393943783879184
H 0.7553559115540964 -1.980045068612723 1.0843266588101217
H 2.1154852649499047 -0.07667755098348542 -0.84774520586648
H 0.7943932163125561 2.694720345000336 -0.19130199667457085
H -0.7793226490858642 1.991415591779147 -0.6024670314830417
H 0.7169038674378776 1.491510354332886 -1.5296411136979973
H -0.7241981938968977 -0.6193613256646657 1.7329525452077927
H -1.4687906082386 0.9321886604365843 1.2668772618043689
H -1.0508882733580944 -1.5344347246165861 -0.4479364568214794
H -2.5608270016776613 -0.5742085918922832 -0.0063242300687723985
H -1.3131504204939712 0.054720641678491604 -1.1862884258967767
