35

C 5.960221920782086 1.218242776252269 0.9129514174061227
C 5.180021448405813 0.5957549604684341 0.03823902098212743
C 4.04570962413445 -0.24185507360459038 0.5329681420070076
C 3.574419720806634 -1.3833871755624396 -0.19871475191635574
C 2.720554633204626 -0.10507998724500481 -0.10325211251488209
C 1.5953133812585394 0.5130162314946666 -0.43032645171611833
C 0.5928419052528557 -0.13505052131171236 -1.2307768370011094
C 1.007852519158389 -0.6945245549810247 -2.5300276944265048
C -0.5072985843647315 -0.7923925868325137 -0.5562208069840779
C -0.42117541439345757 -2.1020116319499236 -0.392518414964586
C -1.6981640133761278 -0.1104795170458117 -0.04769576524658362
C -1.9004589745966014 1.1998690239145118 -0.15132961747791362
C -3.201388551380474 1.5523626787402263 0.4666241090524071
C -3.722600084106802 0.24252735462051034 0.9450441341933511
C -4.99547006847194 0.04161650558871727 1.636530531997988
C -5.781813530239756 1.0655955857346033 1.8810480864444845
C -2.8335253804219254 -0.708116685268947 0.6356253772572441
H 6.785456117270971 1.8302082448304657 0.6208049682031275
H 5.783790766220375 1.1262010965846725 1.9921578258106745
H 5.398941043310821 0.7209076021063852 -1.0139167622994563
H 3.1001810631154707 -2.2360158621518287 0.3552988022696813
H 3.89404513720263 -1.6546943963451182 -1.2251581856143041
H 1.470679265034154 1.5191869276249579 -0.06833003027350729
H 1.7935416679360296 -1.4622428373775171 -2.370200162088725
H 1.3835080200498135 0.12409898179315934 -3.211266619171479
H 0.14834371833108956 -1.2197451033437974 -2.991445516469199
H 0.4169542656790103 -2.696231614506638 -0.732234122278388
H -1.2159293119312253 -2.640194090646147 0.10486069247249402
H -1.1962485278645174 1.8858890891400664 -0.6253259990338866
H -3.041987645860036 2.2654557968529785 1.2833548889051345
H -3.8598432689745077 1.9987977170664994 -0.31069369706301925
H -5.301321145633064 -0.9414777317682212 1.95141199784413
H -5.4897726327517145 2.052363615596883 1.5727330571487466
H -6.719540487654814 0.9446181067264823 2.38617247638525
H -2.9658385951322987 -1.7732129251954587 0.8736080181603486
