14

C 2.2825757229685357 0.3653249029572635 -0.17697800866021
C 1.4405493147419588 -0.5806091583850568 -0.5427944596816809
C 0.10539108101453407 -0.20539372218967372 -1.011853390551744
C -0.9463428602707646 -1.1857874746859078 -0.7140905809368742
C -1.9308929728222044 -0.5748493529001721 -0.08492912061923835
C -1.5787662948374728 0.8256237860399218 0.06116151313050331
C -0.39860422647444105 1.063091666558349 -0.47070389205017904
H 2.014940594883912 1.4236824817061895 -0.21280127404295848
H 3.2908701907509355 0.16682524142584362 0.18227165918126786
H 1.7304124775341025 -1.6138367290383497 -0.4973070207511789
H -0.9784668401147812 -2.2547056078096572 -0.9431527927216362
H -2.866627046744249 -1.0419482582357336 0.2728674861823638
H -2.2300731036811716 1.5610757931525383 0.5533095325474621
H 0.06503396305107227 2.0515064314045173 -0.4744596409717104
