44

C 7.470314653737006 -0.3935527003082112 1.5133790719562779
C 7.423709356923191 -0.056390671921215246 0.24391520904813735
C 6.292561934689919 -0.4934323819500234 -0.5598626470053912
C 5.1290631026307985 0.13300678489906506 -0.39574212087859956
C 4.197305325764222 0.944904937358345 0.011534129872574263
C 4.005127144391508 2.22351576714205 -0.6810981596120559
C 3.372155136744736 0.59019530197721 1.13618718579032
C 2.062750189517994 0.4898413930573037 1.0783221058670684
C 1.3723944356522422 0.7505912587192749 -0.20174399943222618
C 1.8135354966292532 -0.35230157629249015 -1.1503731307048166
C 1.0281532376471143 -1.4239319357306761 -0.983402227552383
C 0.04059610055668087 -1.1111456659580639 0.06214132240126331
C -0.052360095406007334 0.3761943028652512 -0.0781043118391592
C -1.165224478995536 1.066414148568334 -0.04037043470418365
C -2.4725468656845915 0.3998176992795843 0.08361420999885244
C -2.4191529938716525 -0.9140085762900253 0.14372518837863135
C -3.7384421394575797 -1.4539514771274955 0.26725837425086707
C -3.9026112320396527 -2.803970960045022 0.01888530959088567
C -2.810871362662061 -3.5828430349526634 -0.19921749756981727
C -1.4478007701525775 -3.0747272493605036 -0.1965367296935391
C -1.2498097811619961 -1.7610490308571463 0.021515892465030825
C -4.619216488825015 -0.34946166492710296 0.25412890057140053
C -3.879702386115561 0.8033791962368304 0.1478876478731479
C -4.389923632282716 2.1612703188504088 0.10659288671723666
C -5.855598760577434 2.230328992880109 -0.054775148194718626
C -6.706983771064001 1.903098252313998 0.9222357561157523
H 8.278397985359096 -0.1072145849615895 2.1776856232576
H 6.685415988048179 -0.9848201419537393 1.958238275415268
H 8.233317684049917 0.5359118450892657 -0.15366179603674893
H 2.9851247216470846 2.59729644767782 -0.4590303825320092
H 4.135820054249314 2.069485086119903 -1.7872467579287847
H 4.783982654796741 2.9561500259803415 -0.32277284007506213
H 1.5051698173623036 0.22126322148087327 1.953427355720684
H 2.628807246293029 -0.2283225810767921 -1.8193428835023553
H 1.1118235894215545 -2.3587109514754148 -1.52913450936244
H -1.199912624572462 2.1457462791593884 -0.09608907705142969
H -4.870791644628012 -3.3631598163408185 -0.02753570720795049
H -2.995685756901922 -4.646696879322253 -0.3849209116346005
H -0.5913430914871229 -3.6968545415755423 -0.36009989986742325
H -5.683920793903946 -0.3005248117568423 0.31076156168836855
H -4.097341720167783 2.765302387376097 0.9802165982180009
H -6.266471238362554 2.560859419375019 -1.0069625436741985
H -6.363727311031206 1.567205058038921 1.8919215927696122
H -7.7760869167656566 1.9652931097410202 0.7699789451794037
