19

C 2.4678842852137923 -0.42648342254514204 1.0630464340034114
C 2.261080281792459 -0.5290299298774466 -0.24362159464490396
C 0.9856718323612391 -1.045304013618923 -0.81308285561
C 0.12749094710634154 0.1255052370533187 -1.1617099152107884
C -0.25991370565967425 1.0673973061132025 -0.03036622552358973
C -1.2790377830611876 0.2471376244682338 -0.7872682262298142
C -1.9853317944581652 -0.788278068495387 0.004656786176643317
C -2.5065808558085223 -0.4517989103776886 1.1674177416287366
H 3.39860244047 -0.04988031317606485 1.4695075180163624
H 1.7136556452810048 -0.715441344838215 1.7804352458372625
H 3.052609508295523 -0.22456206060426276 -0.9178798968992441
H 1.2510562241880048 -1.5840591210954025 -1.7452784244848052
H 0.44154896552122935 0.6483996447771888 -2.1046969605491066
H -0.009097949689374118 0.777449647414803 1.009555429967009
H -0.19511924391653063 2.1640697871772394 -0.21708291294202872
H -1.9611168977097817 0.8517591793006283 -1.4202289774064736
H -2.0599898262361065 -1.7947939898165275 -0.3830203187393205
H -2.4009708551685742 0.5669370437644252 1.5029315069485705
H -3.0424412185216747 -1.1261676930363487 1.8266856456620684
