19

C 4.31903585312272 -0.2708132352103508 0.3123115475814564
C 3.8562790735990182 0.23135064118674406 -0.7967424484561935
C 2.447344911916487 0.4004101662177943 -1.0165951263878874
C 1.5230597644644053 0.0706368399726201 -0.1378263802691168
C 0.11666338902025719 0.28018893308438303 -0.45199339550701584
C -0.8545152818358348 -0.034153520602270115 0.3967395738958318
C -2.270927347735392 0.19961486876775109 0.027565886894902168
C -3.1571878294483486 0.2455964568553131 1.2148579009659435
C -4.156563287069955 -0.6028603884698772 1.3723160751321033
H 5.406014283222216 -0.39155472302398475 0.4594394962748269
H 3.7255684157302813 -0.6012154623948588 1.1519836022844494
H 4.532042629586036 0.532348570156593 -1.5782362297785189
H 1.74906773797169 -0.3513799902249303 0.8141593185911057
H -0.1412752886810394 0.7061382209068915 -1.4092228287803277
H -2.361888748473836 1.1450001662526066 -0.5832122137757338
H -2.56844834187641 -0.6121568814893472 -0.6751969028145736
H -2.9665711202995992 1.0007310356814865 1.963319020674582
H -4.394937196634014 -1.3826541440068847 0.6522056275427216
H -4.802761616577781 -0.5652275536594955 2.243360182469632
