17

C -4.088219596974568 -0.39137650293815895 -0.1319015520483262
C -3.0647684195835465 -0.019574156783524393 0.625889565746526
C -1.8166010093030285 -0.8246085689292687 0.7017979266930883
C -0.7000513325394793 0.021277611585267094 0.12720780825578507
C 0.607044766893874 -0.67846021804611 0.19228536933244916
C 1.6975301874928839 0.0972763787188991 0.05225345551929601
C 3.0330690038934005 -0.4788027328437618 0.09889404864292319
C 4.074706834884808 0.3122135768693263 -0.042008170273151346
H -4.9862879057927945 0.21526969855861688 -0.1680405397670955
H -4.041959708715395 -1.2903705525319324 -0.7149452840187895
H -3.1044376480955314 0.8871191865844156 1.2173933143131912
H -0.578290014580706 0.9833665969965508 0.6772738602815659
H -0.8811067354449157 0.2520388933153166 -0.9449855602287012
H 1.6176986465810093 1.1664005291023702 -0.09841539507310934
H 3.1935049041630865 -1.5515138519181366 0.24792059923227514
H 3.9451008527865525 1.3651729120736398 -0.18904307821334657
H 5.09306717433397 -0.06542879981358513 -0.015256051569209466
