20

C -3.148298436921711 -0.6680009220745579 -0.4345748174587771
C -2.004109620853812 -0.09989900791963358 -0.768314011679359
C -1.6583320428153188 1.2183985574256637 -0.2716671081509917
C -0.22592809483956225 1.5330240025174915 -0.14787871281108703
C 0.5360494654630491 0.6210862529972887 0.7863681505224688
C 0.43507415444140896 -0.7793297421991329 0.2893504628901996
C 1.4721871785351148 -1.4703608480694357 -0.1513781802020427
C 2.8386447316875554 -0.8912502748447906 -0.18408749485440118
H -3.859559765564961 -0.1627403769557014 0.22020618219391316
H -3.4548342359461794 -1.6524524859158194 -0.7788409638000734
H -1.3386378710710525 -0.6411261249723482 -1.4166608290473623
H -2.3266524170181735 2.0374063406141607 -0.5057060251116784
H -0.1213777383619207 2.561987113981965 0.26611435870195627
H 0.27877413905982124 1.5457199496662886 -1.1281746649918625
H 0.13057547203689798 0.6402866889763841 1.817506301219131
H 1.6024605945994286 0.9138949811857943 0.8710374184042525
H 1.2755357090167758 -2.4833771686367174 -0.4886645093535746
H 3.5708586431003595 -1.681031857802012 -0.4183336760469328
H 3.067375919271254 -0.5070908752290367 0.8508032791593316
H 2.930194216181011 -0.03514420274587149 -0.8728441755066554
