20

C 3.4517895683438615 -0.17580060535413577 -0.2952420933698349
C 2.7111729660168673 0.21821334767700812 0.7342243239749952
C 1.8072251878656436 1.3964163575744737 0.6606516838925042
C 0.4104241360624959 0.9101358138202598 0.38532744622259957
C 0.24464280714765635 -0.2899067698684015 -0.13374520398344858
C -1.1111736740838996 -0.7934232617374394 -0.41439939396282316
C -2.060801144625942 0.2450829237330084 -0.8398432591016881
C -3.0869936376052913 0.2560113854380626 -0.010090402457081682
C -2.8701930771703457 -0.7668286258492812 0.9987813669822629
C -1.727517698641947 -1.3892664265289238 0.7829637864176447
H 3.4090475391735153 0.36862592429262414 -1.2309326749938394
H 4.090567916436786 -1.0221334024419655 -0.2170317831173732
H 2.7435551388640707 -0.31682229969092673 1.6769318303352494
H 2.1356282015069294 2.129936113567181 -0.10145830534804534
H -0.4556241123982376 1.5186003825963195 0.6020826400167404
H 1.0776923676204153 -0.9149834604519018 -0.3591830551291639
H -1.9866633786760985 0.9297969081334732 -1.695205025639206
H -3.9634646665999993 0.9252500366061791 -0.06711428134940962
H -3.528956756063255 -1.0252129757685535 1.8393875157127046
H -1.2903576831727637 -2.20369136574703 1.3691123573285164
