16

C -2.62742509261544 1.2014663181017011 0.019286299649483134
C -2.5547008883214746 -0.11641501074638944 0.12590992832091752
C -1.589289251373584 -0.8242254823150496 -0.7610844381928233
C -0.4622163564155969 -1.2702885959615617 0.10313663830687016
C 0.6762182494521386 -0.6895208942444535 -0.05594252102859288
C 1.8280986047318535 -0.14021208166881494 -0.30117577622076863
C 3.10674563542507 -0.16893491791315962 -1.0708895059935226
C 2.777314959461499 0.9088581847838537 -0.03928431195654799
H -3.3013044137065366 1.7661219499017367 0.6287426896776849
H -2.014618511661736 1.7697791208375757 -0.6832927052245812
H -3.1921926144994837 -0.6100380540790666 0.8434328484629032
H -2.0983135051633446 -1.6953958703276022 -1.1890369022061387
H -0.5361092861999223 -2.0362943751755456 0.842251859046624
H 3.862949489233132 -0.9524758990343924 -0.769843936525236
H 2.6817441356542995 1.9226944658222185 -0.5211026112246533
H 3.4430988459991316 0.9348811420189004 0.8339303209591101
