21

C -4.549177844543988 0.4331947149767901 -0.3134637893607312
C -3.27422980346913 0.5519815515626126 0.057601713282039606
C -2.213511391672165 -0.08807804304728929 -0.767010512850384
C -0.9137698971789291 -0.1757441177568513 0.04017594872230818
C 0.13915441824859454 -0.8311156558756957 -0.8305663829849574
C 1.3860345926147195 -0.8977716413160374 -0.010721161341397906
C 2.3850815893935295 -0.0682352352022243 -0.27431418083120307
C 3.589495607750985 -0.15575306261403504 0.5417198110040459
C 4.586286153682929 0.6691302976242481 0.2816210218705243
H -4.825114320019262 -0.11570675947250607 -1.1962465462317848
H -5.338293960126324 0.8874656239006987 0.2663988518762345
H -3.0128610370543494 1.107858323864513 0.9489393837184767
H -2.4900779019838666 -1.1577428946120647 -0.9963946237286734
H -1.0574594992428508 -0.7298334918463635 0.9845729262718531
H -0.565760602035842 0.8437557688071572 0.3030053247954221
H -0.11738206380984689 -1.8615263061409693 -1.097536755085678
H 0.30986677016664915 -0.18636270783113915 -1.7042659252575474
H 2.301331284977704 0.6473379721550608 -1.0707006736930245
H 3.677349275045955 -0.87656183940551 1.3460387913406768
H 5.487925606910228 0.6095995752530193 0.8862682621871742
H 4.4951130223456275 1.394107926976176 -0.5290325235085215
