21

C -3.4037220884209107 1.2430175951433489 0.30034750986465486
C -2.723177285590825 0.1906358229152685 -0.12417004772603836
C -1.5021006091109996 -0.2271821173536381 0.6055546529272116
C -1.0555647280724065 -1.5794260661120176 0.26222799311528416
C 0.22211893626714355 -1.8967316656549567 0.3479265712813045
C 1.2175573725434836 -0.9136949201419037 0.7843746247547239
C 2.5554254134131007 -1.065342370012822 0.19776495734984653
C 3.0571824943428343 0.12996120232541683 -0.06436289200335966
C 2.1287143353678055 1.2319641308771203 0.3085693327716969
C 0.8429311593619949 0.4782937652812097 0.46761275875499775
C -0.4425128228722449 0.7858592800309627 0.38514239008064555
H -3.0616017947847793 1.7827957516596336 1.1710229995914918
H -4.304296342390093 1.6097919444030822 -0.1783889043357421
H -3.078516265032893 -0.34516942233745956 -1.0033218775228072
H -1.8241287292953623 -2.2945359311713927 -0.06175408821830017
H 0.5318974689196937 -2.88848501470915 0.09380829157149508
H 3.1022565448395643 -2.012659388579028 -0.012219285386361895
H 4.055949734713097 0.3036076440629661 -0.5115063787959948
H 2.42952708140547 1.7145134347932147 1.2648697553900674
H 1.9950925912875626 1.9354400107327427 -0.5159895949647262
H -0.7430324668911492 1.8173463138474237 0.14736999388747116
