19

C 2.9739588662926035 1.2088635098620504 0.5748227658226446
C 1.6576901174798548 1.1161508454456686 0.5554296899720702
C 1.0149313694057418 0.2741115174747308 -0.4676348757308124
C 1.1938264045835254 -1.1395601268656812 -0.12061317837792009
C 0.22218772895865724 -1.784857815927855 0.5013743382634364
C -1.0346784655727916 -1.1002327180770473 0.8481177777183676
C -1.3716496311914548 -0.0076999207400386535 -0.08617805925585213
C -2.796974238757423 0.32983965443066027 -0.299444205468083
C -0.3996991853629777 0.6465599190926278 -0.7124743664301919
H 3.5782980700693985 0.6806010009150137 -0.1424508386385207
H 3.4635275524253224 1.8207219273473827 1.3165382321038483
H 1.06341700851593 1.6620894645518434 1.294411278423255
H 2.125291510779595 -1.6686608868831205 -0.3712348489680395
H 0.3346591924374028 -2.8282492774985397 0.7665984202168522
H -1.8533078451777085 -1.8466408416062448 0.7968963454531808
H -3.3102381368282026 -0.4207020497034969 -0.9550788794929194
H -2.952155745421444 1.371056367708984 -0.6523292569164182
H -3.3123231091834784 0.23463224508420757 0.6961492870215197
H -0.5967614634523882 1.4519771853888277 -1.404372574041673
