23

C -5.059170334684515 -0.30791128196345174 -0.19977462193200354
C -4.268133095621119 -0.5778399123412169 0.8181649163280745
C -2.9427032654377103 -1.1800992529242087 0.5581259597416532
C -2.1565051695884487 -0.19761009415645286 -0.28010236626865154
C -0.7989257480625368 -0.6923329311939268 -0.6087806196403605
C 0.18403420607471427 0.17025376665523914 -0.7130824761618446
C 1.2253182928510777 0.9286386876357315 -0.5800948115367518
C 2.1979621719488747 1.7820005929030154 -0.41864495617843467
C 3.536808544971776 1.315274722871086 -0.07678313379336342
C 3.857365987358746 0.04276609897365292 -0.31282216932678597
C 5.199563419309985 -0.4887570830132727 0.012460259731099411
H -4.757275311821302 -0.519282048358555 -1.231433726403257
H -6.045521779209406 0.13300904288879695 -0.10161072809437996
H -4.577305281281266 -0.36534584694255645 1.8227094626279101
H -3.127056960787974 -2.098729082651122 -0.06044318439282533
H -2.0122958695490234 0.710236665959741 0.37336912562080676
H -2.6997434730745797 0.1487908519014397 -1.166308404983479
H -0.6413632180644544 -1.7425481235997897 -0.7556528657698746
H 1.9781570355740286 2.8341392109024053 -0.5458694698337028
H 4.27755270222637 1.9685096831535898 0.3619550831059516
H 5.862563263548698 0.3650892278836043 0.18663104624813992
H 5.154014881327386 -1.0855121877715646 0.9668711585614264
H 5.612659001989965 -1.1427407068126387 -0.7733478873773443
