26

C -4.289107997223534 0.7544792149797104 0.40763398944029516
C -3.901801251502969 -0.3850844907450954 -0.16484160699284434
C -2.6310943800784234 -0.4814048350935675 -0.9230245884817507
C -1.6080566645381944 -1.321880395871183 -0.1701829650578455
C -0.37413522896322327 -1.399455812213024 -0.9348166285484748
C 0.24026372884900718 -0.2541918474077511 -1.1453515740620352
C 0.8202301222530831 0.908306058831135 -1.2342578865962488
C 1.7036136195692695 1.2886962567515534 -0.19347495288026104
C 2.323609321214349 2.4570187774177636 -0.2252750992201901
C 1.970992783233009 0.40928072101480123 0.9619006283906018
C 3.3147998407261507 -0.21450274093325564 0.8310128908735157
C 3.4188676615338185 -1.4326665496679296 0.3171100251885766
H -3.7049758990109014 1.6577557830350276 0.35047427769958245
H -5.222193361981163 0.7972533881815298 0.9557769150364424
H -4.516971390125046 -1.259594020618025 -0.08102570663073727
H -2.2419580786047333 0.5402080439875737 -1.0621528665259286
H -1.5002160667698292 -0.918708160072925 0.8510147793260971
H -2.0431460160424844 -2.3436838474832444 -0.09065557824395597
H 0.12584118304949488 -2.22459622840762 -1.3556894942296926
H 0.5479568478759932 1.4523645382877575 -2.111572173437021
H 2.186071807927844 3.1649999251981322 -1.0361488164188757
H 2.9958014811299774 2.74402945754994 0.5687551955552419
H 1.2386943739010878 -0.40566064009594144 1.0800844600325972
H 4.21254538233756 0.32366357425857273 1.1547561738444827
H 2.535338464156539 -1.9520653435401236 0.0028867528262178977
H 4.399029717084733 -1.9045608273435102 0.21437074892001626
