23

C 4.329996314342114 0.649425724636449 0.06913412650515137
C 3.1924267849006123 0.9527045164741595 0.6702273827589392
C 1.9181506906379204 0.7141954970265978 -0.011526817193729789
C 0.9522498568794712 -0.06573759752892025 0.8003094790463164
C -0.24842511812095136 -0.2888828503741164 0.3252096473546859
C -0.6201618645978088 0.21884482295821653 -0.9685915910275336
C -1.883983655984407 0.5085636017100997 -1.2204180203094337
C -2.85588780202519 0.2855125815845242 -0.12564050630888693
C -2.6046605484276744 -1.0066423092571746 0.5885567156728169
C -1.204330728175474 -1.0731612048750165 1.1368362216894075
H 5.252107254723457 0.8320945887145538 0.5860955588788846
H 4.302129775144441 0.22876660015263464 -0.9194139600512712
H 3.1839053304805836 1.3836190661733483 1.679230842577267
H 2.005556256712067 0.2726734212798409 -1.0050148028617087
H 1.233367791491441 -0.4571506230245677 1.7928999522138473
H 0.0940012200316907 0.38526308846971774 -1.7749124449700397
H -2.201617670604216 0.898271191180296 -2.1994586033741235
H -2.7465955128966404 1.1143960174842613 0.6259614220771199
H -3.896403263668944 0.30339813030433455 -0.49932572755204796
H -3.2981805184438913 -1.026742118075813 1.4736853627754545
H -2.839512251016955 -1.8884549604455305 -0.032198673490868475
H -0.906237163699329 -2.1627057537949854 1.1431087871734746
H -1.1578951776826298 -0.778251430772743 2.220595788297956
