24

C -3.4724774607322653 -0.2719591767789669 -0.7874035861678289
C -2.9267454217009115 -1.403257124616296 -0.40883328598277047
C -1.6527662408503705 -1.4546773075691888 0.3230719232537951
C -1.1053865710862625 -0.07233522586482484 0.5320134970176352
C -0.10163519041225955 0.4907722584744324 -0.12345556193272123
C 0.6164008186898509 -0.2030505258174007 -1.1699925358030947
C 1.7918185083729556 -0.6596419735187475 -0.8253947656068452
C 2.992095855456482 -0.9999147867946263 -0.4488558591959997
C 4.038813570327486 0.0022472455114888315 -0.6377273581978136
C 0.10730604946454833 1.8472824946126287 0.39287521161592676
C -0.9266289495937511 1.97910349359228 1.4429816500434898
C -1.6272381746846403 0.8591132193937845 1.5175900752206901
H -4.419204985523879 -0.2609940838994182 -1.3297062571686122
H -2.959686741741836 0.6582804305756471 -0.548549295378715
H -3.42159574328252 -2.3379506760587248 -0.6371171495045128
H -0.9357779803652262 -2.0473934458585004 -0.2716626635352063
H 0.3409400865483206 -0.39579291378985043 -2.1638431929376494
H 3.0547882482078124 -1.9721667766048976 -0.04763325288918274
H 4.1569511896097255 0.32646630090438933 -1.6727365938508956
H 3.91112496287817 0.8967964324280693 0.006936123300979881
H 5.007031524429605 -0.45670432252153675 -0.32071882198545887
H 1.1308266037254397 1.9787340946829908 0.8014805381770039
H -1.1355407037909042 2.8348933454656553 2.091851603677733
H -2.463413253945797 0.6621490240517617 2.206946618739686
