20

C -2.3929985009480093 -1.4272073948479214 -0.016584659904430695
C -1.0693283431831881 -1.4968270594634399 0.03636249384513301
C -0.23875936446698215 -0.3462412409235346 0.3913926055141789
C -0.9339807722629055 0.743067593172143 1.0811680099327474
C -1.410087199134347 1.7967700968925617 0.43841219946097204
C 0.6987064349293965 0.1082194079769195 -0.6870707616917769
C 1.6788219162765172 -0.9253983167705312 -1.1157298640064388
C 2.775185452421497 -0.2872088084974456 -0.7174237184547986
C 1.9249862155086979 0.8450649674397077 -0.23030426646073524
H -3.0036451252885548 -2.2827409632659883 -0.2801964723575752
H -2.906633567586012 -0.4989052080438139 0.20570890209219414
H -0.5991755829808509 -2.4422742321923607 -0.19291741277137117
H -1.0957638837842836 0.7389285042508335 2.175396007736172
H -1.9248259356957742 2.607656925493541 0.9332464989440625
H -1.2670457888517141 1.8290979069748112 -0.6328613513100305
H 0.20224086964184326 0.6444808045762885 -1.508042221182228
H 1.5449441582781611 -1.8917138456623241 -1.5989427418542
H 3.842904835918361 -0.5249182640485813 -0.7498390116502003
H 2.1695505009169778 1.7511783512616121 -0.8407251097728641
H 2.004903680290962 1.0589707756772426 0.8376903816939535
