19

C 2.5662619856977154 -1.3430045066215945 0.24352792003900323
C 1.9429152271964445 -0.22885178239075415 0.5400746170013426
C 0.9272207546094976 0.3164953477844443 -0.36177062990087216
C 1.0478940787562976 1.768812461631582 -0.604319466311208
C -0.08581278323349627 2.380402397614383 -0.31167941010900535
C -1.0122893171210436 1.3546346114575818 0.14001596058913493
C -0.4606372837332754 0.1551737738935489 0.12326384904773946
C -1.1294518929257462 -1.1403408396768895 0.526695203495416
C -2.2560894876453714 -1.6504125371055065 -0.16996656916086472
C -2.538348094679001 -0.9845945416636149 0.9747015683663705
H 2.343973189464546 -1.875937892012763 -0.6651718604391872
H 3.3136228277501547 -1.7474457450000678 0.9036469901166998
H 2.182278947695333 0.28702018369512683 1.4553119710510318
H 1.9721135188834107 2.236398552687428 -0.9774780680927349
H -0.2596888078145513 3.4508131007238814 -0.4028691037043306
H -2.051046595336125 1.550263654038288 0.458978687837017
H -0.5112340235593004 -1.7633099856855583 1.2313288137193963
H -2.7698103879570644 -2.1747877552948545 -0.9726587243021219
H -3.2218718560484674 -0.5913284980746645 1.7201667403089884
