55

C 0.41484588102403874 3.8161774147422576 -4.23354571104386
C -0.409703252347861 2.980772996791888 -3.5824857574379463
C -0.2692614211245919 2.8664595194444447 -2.1862412816004753
C -1.1056439818595705 2.030472385687147 -1.6090940980731079
C -1.7823135840457256 1.5612466457849947 -0.5688645248835159
C -2.984051587554869 2.2987783154520085 -0.23942880690167267
C -1.1329577153197246 0.4544944365113853 0.03877984160426344
C -1.5806830045945175 -0.7290449275343306 0.4605249419161207
C -2.9589486104618223 -1.1174335022314492 0.3215695995356507
C -3.616780709025453 -0.502426416272746 -1.0314283994821483
C -3.7977821189859227 -1.9902738578271528 0.7329155564079305
C -4.111068005565353 -3.134363831272906 1.5256612125016713
C -0.6259321354009001 -1.6123777173167348 1.1894641922850235
C 0.730673093038402 -1.436861515141316 1.5401764863051224
C 1.473894331201187 -0.32197336797947207 1.6500247381945963
C 2.8755517159869415 -0.5404329919121201 2.021551886727412
C 3.5672703742743668 0.4520603530450943 2.473573267928995
C 4.158946482996092 1.6005690496718206 2.739114698846717
C 4.580645713146431 2.44817153548279 1.6585343789417961
C 5.347408561906312 1.7533626699079956 0.6215299141649913
C 4.785995777591091 1.207515683384646 -0.4213816528639075
C 3.3450553827676974 1.2684409315745635 -0.612698741474179
C 2.6808050383685904 0.7568673262822861 -1.6155298765984107
C -1.0346355311628042 -2.908088555634062 1.3840608080873205
C -0.17901739913327044 -3.8126282731309837 2.115598108975957
C -0.6011740801249643 -5.137837377927588 2.2580558418259047
H 0.3139474041672413 3.9119692695225634 -5.285396948186996
H 1.1774372577144376 4.368087255840451 -3.669734119404663
H -1.1414335310647508 2.4598515963377943 -4.148444530779424
H 0.40461016740864386 3.3763688748611043 -1.533226750348039
H -3.572846499994832 2.4999639066192487 -1.1739733387383011
H -2.8556180248731584 3.277248706317249 0.24566301712762176
H -3.613012695012952 1.7049978404988833 0.484571312358822
H -0.037363238165605765 0.5513198179346019 0.11820300289806056
H -4.46490828103892 0.03337166277757807 -0.7065999668519779
H -3.9727750646196607 -1.4994407955399058 -1.492339674596214
H -2.822177540416995 -0.13264509296514043 -1.604466736572015
H -4.888580795619991 -1.6501400288572852 0.23119284482616237
H -3.603965654771512 -3.1556272154355702 2.5346114729582463
H -3.954852822952318 -4.0876604757407495 0.9509547883187519
H -5.231902271987746 -3.1408724959909025 1.8221600191525094
H 1.3725536491121555 -2.342312010809221 1.7018616347405262
H 1.074595893175136 0.6253297645498778 1.5599649684823524
H 3.376815383963098 -1.4616190635584076 1.9305729873617616
H 4.227870324158038 1.7291559919644337 3.8073715864732884
H 3.81793173872737 3.1169539511892714 1.240517409164353
H 6.446173913120901 1.7351359259508443 0.7357469858506088
H 5.407788988195688 0.6851794460763606 -1.1525438928053822
H 2.7651740225076566 1.7912935790719862 0.16600901655880046
H 1.5940955739685818 0.9064307758059871 -1.5877880268051943
H 3.1321895635702557 0.205481383615622 -2.4278507059242562
H -1.8904015961396992 -3.1789643969158226 0.904670680866931
H 0.6846708249576557 -3.5115083154437756 2.6194663106106493
H -1.538856613452019 -5.332789833398203 1.7872601242935304
H 0.02170071002205933 -5.736206953855383 2.8266315305502148
