31

C -6.4970771137505 -1.0843314392876853 0.342532129751772
C -6.065543556684957 0.13447193365991772 0.021639622077364133
C -4.87124559899359 0.3554341075364173 -0.8263484386288897
C -4.25902812944669 -0.935790509272634 -1.2431135947054328
C -3.0514667505608077 -1.0406647568050964 -1.7187151409951735
C -2.186606722563195 0.08810956665485942 -1.8885493148905832
C -1.538871208250284 0.4655175511726123 -0.8108316979348759
C -0.8606904069373645 0.7348433596226512 0.2892807109783972
C 0.3749143817567355 0.02877997616152067 0.43433317717499387
C 1.519746435649776 0.6575921479297364 0.25180977757641043
C 2.813850640537528 -0.01258001956492926 0.38661173683846084
C 3.937819376734987 0.9131658726353906 0.44244844088542834
C 5.1338240613723825 0.41071755189051984 0.2635229163178308
C 6.2814991143741095 -0.22851883623855299 0.19860320608988466
C 6.831557763733267 -0.7135895858062824 1.461061785197955
H -5.9465302878492565 -1.9240852299163047 -0.03639027155468752
H -7.3776972560417695 -1.1798674940916245 0.9669448255779683
H -6.584381192592185 1.0188286234701056 0.3775635977578166
H -5.127268434482201 0.9690825152392561 -1.7266574632290026
H -4.086240804718374 0.8837752052481148 -0.22684477954056798
H -2.6933162275138627 -2.018135431380627 -1.9940191559016804
H -1.979871362361048 0.6712001570506811 -2.7411118895508153
H -1.3323888054210173 1.4395350154687936 0.9124462144219833
H 0.4122609750914983 -1.0195925126815586 0.6924044278898993
H 2.897871241090822 -0.7639410340691389 -0.4203678111251598
H 2.828419623568313 -0.6124444826931764 1.343647130533663
H 3.936653564707448 1.951515980853687 0.6104927082505537
H 6.65287040192421 -0.3041775355873955 -0.7836734099002441
H 6.523489719184459 -0.06825168742630851 2.298875888221395
H 6.389431333735323 -1.7252409857600661 1.6660008942117785
H 7.924015224707223 -0.8480681507822451 1.4564037782036636
