26

C -4.359844852967807 0.8273303360110184 -1.0097307185057505
C -3.065965553345311 0.635824674217885 -0.797855427059571
C -2.540739101127436 -0.6133563796116045 -0.18695742059113563
C -1.7954793937911306 -0.33039257842339037 1.1033025381197925
C -0.6634373382383579 0.559891200019313 0.8455164088171713
C 0.4916260014752452 0.06659354180483797 0.4265671461337763
C 0.6989366128914127 -1.3523065742082392 0.20338328951238774
C 1.8403489311177732 -1.8591376792898657 -0.21275698036935847
C 2.9982126223060193 -0.9926540903077875 -0.4813078825623379
C 2.752750812308056 0.4311840306472293 -0.2455536277745193
C 3.876257673640574 1.3905699333711143 -0.4929447781023546
C 1.6173048219608606 0.9681373863854918 0.17205636368584243
H -4.704076802366231 1.750532284664108 -1.4569295016015584
H -5.041670454691065 0.037203033595694386 -0.7221448358788337
H -2.351627505133898 1.4024427733232678 -1.0717511059214329
H -3.353783444152393 -1.350312473123975 -0.029976051846938485
H -1.8696870478338161 -1.0734845523890981 -0.9581816709603103
H -1.5463467899892087 -1.2631187187533914 1.639094293591042
H -2.510677662688783 0.21643818728693942 1.757289477218726
H -0.1325434878460102 -2.033306718685227 0.38968630107991614
H 1.9236390991307677 -2.96376495595955 -0.3618789592472612
H 3.8321076773442595 -1.3383747316991856 0.1922320801129512
H 4.851144879561775 0.8701876616034082 -0.41254615316190163
H 3.812827910465747 2.2073912010653265 0.23252048431381964
H 3.7638690225722318 1.7778611259801347 -1.5129070594710508
H 1.476853369396657 2.0286220824755765 0.334292633566967
