19

C -3.1834497609708294 3.1077295122326727 -0.3204906164490078
C -2.0989964216352206 2.5514119667826463 -0.7971650339741698
C -1.4872175813250188 1.4132321016780263 -0.10446966847722024
C -0.4034174316061533 0.8570436801445106 -0.5806220777094812
C 0.19954542880568704 -0.2647641988817219 0.10212492053091857
C 1.2947793633941185 -0.8448309374608396 -0.35807097140507527
C 1.9514589105681257 -1.9689465364875347 0.2716179367931123
C 1.8518785578433619 -2.824142982637654 1.3726398539955778
C 2.967575025428675 -3.001931191946841 0.42185820297868376
H -3.627559929753923 2.7339029313688 0.5765596563557909
H -3.6276218060959025 3.9366287030899447 -0.8263798739374074
H -1.6479349665917453 2.9318971774905407 -1.7091936448611655
H -1.9189750483182269 1.0204588050125039 0.8018455391623753
H 0.02813256298262235 1.249039257192614 -1.485824602673847
H -0.25362846236047815 -0.6373024356320132 1.0071114923616462
H 1.7410029281895392 -0.45741701725721595 -1.2731967562639241
H 1.314354751619301 -3.1073452074820445 2.2610124077809575
H 2.917332507162337 -3.9479355262326954 -0.16614071253438914
H 3.982741372671263 -2.746728100971291 0.8067839483213483
