46

C -6.575068409082746 -2.862915656386712 -0.7659507830638651
C -5.2900299693046104 -2.7911536096360536 -0.4889198540693201
C -4.740736558824681 -1.597595873646486 0.11670166964005252
C -3.430418659038423 -1.5591427757050467 0.38462046364263475
C -2.905240014873904 -0.34922608120028337 0.9921672440043946
C -1.4645882724130384 -0.3123570684365586 1.1896542903395346
C -0.6804420396198461 0.7370349331510827 0.9175301626830427
C 0.7672253584372503 0.9796481697301881 1.0446732276587856
C 1.7578406183571977 0.08367246940972008 1.5489435809302492
C 2.6662032787711736 -0.32232994151575084 0.6832011268049429
C 3.565594487313907 -0.6023231734658779 -0.2281585364975823
C 4.673181521546138 0.3120083697749943 -0.29889095332140103
C 5.895725304023371 -0.16054505034191124 -0.4234682704583046
C 6.122672330002252 -1.5890698750371597 -0.48867731941084147
C 7.3346901976576495 -2.0558970137456614 -0.6121238854893482
C 8.475768743120978 -1.1209302726345007 -0.6852075834880618
C 0.9777650982292831 2.201237342824362 0.5970603319316851
C -0.27803526589796174 2.810683379623778 0.16379367802011288
C -1.2583235908214736 1.9415451507800443 0.35334587232198483
C -2.695335805862912 1.9541331004959406 0.10043551392261725
C -3.2859891534477406 3.0682009912397517 -0.45929049939942335
C -4.644815263962316 3.0532778697173164 -0.7188045191893996
C -5.428293761092214 1.9495973015613444 -0.4320271787846464
C -4.848195442529454 0.8401771743824165 0.1239733338008007
C -3.47240161052285 0.854900057330447 0.3881678017477049
C -5.559767609563931 -0.40582984679070944 0.4611563140303494
H -7.218015687282605 -2.0374574980267113 -0.543682630930328
H -7.01635209128993 -3.7311222468393885 -1.2144938292458733
H -4.664111987584254 -3.6438590466443332 -0.7258721898496711
H -2.8041622650500453 -2.4074324357181034 0.14978666642085564
H -0.8939688991435787 -1.1693578658404338 1.5890754019053879
H 1.8971311552319816 -0.3204082459630355 2.513690762485052
H 3.3517451555586906 -1.464986965866197 -0.7894358164209013
H 4.551823436151147 1.403817896856695 -0.2537284916336586
H 6.727484709028095 0.5165163571436456 -0.47689008617977774
H 5.2724818195152805 -2.287532538074259 -0.43428901474190584
H 7.51191304424631 -3.1076743728295106 -0.6610422730413015
H 8.520751068883142 -0.5693158288966484 0.27780805320681745
H 9.427981562900346 -1.6672757410858565 -0.8859886442570672
H 8.278206100155591 -0.4057018166042423 -1.518909869318042
H 1.9553400511536623 2.670661598499887 0.5633934979659275
H -0.3717248417075115 3.8041489040365666 -0.2405475927380359
H -2.7066229845817555 3.9287562334968693 -0.6893222221447051
H -5.1157734188528305 3.9219800454438327 -1.1570005297375168
H -6.508182850904179 1.9491900794808705 -0.643294965976424
H -5.874928587009141 -0.4397465840323194 1.524082691118555
