17

C 1.3412972635942912 1.676144884921717 1.4669930055655676
C 1.1713763917635969 1.166609578045805 0.29419222547684915
C 0.24095247152173643 0.17961919295796197 -0.12196379620229199
C -0.7580906527241245 -0.529460938692049 0.5997474086421087
C -1.1313287541059256 -0.5046413392500296 1.8345492461654094
C 0.3326769724179369 -0.13518019916857799 -1.4537187303912829
C -0.550839384580428 -1.1335433819116438 -2.052633968967887
H 2.1302430143176294 2.4574417870002647 1.634627106201251
H 0.7822987145462463 1.4147032445535936 2.3213765104011985
H 1.8825268639719013 1.591188658948742 -0.4862619562013025
H -1.358836398990692 -1.2763765294078246 -0.03380300518197471
H -1.9659669284223475 -1.1789891356725846 2.16443878376484
H -0.7398696908392252 0.09324472763580453 2.6180608630782283
H 1.0681303658182686 0.37562760428212755 -2.021959516633935
H -0.46577132516236375 -2.150072776565464 -1.6328198790617465
H -0.35824832768284853 -1.2388259415615104 -3.139916666026906
H -1.6205505954410262 -0.8074894361270553 -1.9909076306139648
