27

C 6.230971867327309 0.08693899316617364 0.9351555432755975
C 4.889734683109477 0.017673495866689058 0.9636158614618412
C 4.243915347956401 -0.9624723424384809 0.1215263606063471
C 2.941491493809866 -1.0019363000430703 0.17424407494056074
C 1.6327127431629542 -0.876269030469337 0.19638227074606837
C 1.038059063405856 0.061185364717733046 -0.7333423709410966
C -0.32382929500068236 -0.2440705195435684 -1.1688391337359523
C -1.3294484644267623 0.5122239414586224 -0.7650286531027374
C -2.734890877048022 0.2707777287022032 -1.1600829293817125
C -3.6130306073326115 0.020227189104918233 0.016501926368267854
C -3.144450969677994 0.023922610817166227 1.2465909336177243
C -5.05096108822894 -0.23798351946646806 -0.23010462391358488
H 6.820488104694666 -0.5655978123578181 0.30530831243932177
H 6.778993558491883 0.7972992669767953 1.5400339487627877
H 4.376825072683833 0.6986735652673122 1.6140627071680227
H 4.672609483787751 -1.6605982265526884 -0.5407993325612181
H 1.1796116119379256 -1.5105312035758864 0.930131429759715
H 1.2456303014710497 1.1165385093093685 -0.572371467704279
H -0.5709496631450771 -1.0824017191573654 -1.8263793123865057
H -1.129628652618853 1.3509215269726278 -0.11450813917936793
H -3.154912563947791 1.1069848731391059 -1.7367734317128927
H -2.7846287426490983 -0.6345676736704006 -1.808367126622612
H -3.7942370309870657 -0.15889253083198437 2.0803209136269167
H -2.1014365942337867 0.21178754459035143 1.4175165292470462
H -5.5179118301230154 -0.8398778476390005 0.5774220937118028
H -5.644494322477536 0.7209821138975985 -0.25261459157398686
H -5.156232629943256 -0.7701438160345815 -1.2096017929158434
