27

C -2.725902689773666 0.03327809774767637 -6.055515504152178
C -1.8225675796267713 -0.11566962032900827 -5.115986782040776
C -2.1584490205801856 0.17134477484583138 -3.742084707340816
C -1.239789651376411 0.016782044384268575 -2.8093559910120476
C -1.5784301581053937 0.304887482008888 -1.4336030633187449
C -0.6841477152250939 0.16463925611665742 -0.44938178922285305
C -1.0182575133310316 0.4491693959883839 0.9100444477348939
C -0.2005366965380654 0.3359071272312139 1.9214338027966906
C 1.1681000214106054 -0.10722647229857471 1.7276469545346103
C 2.0336070040141108 -0.2400356339115856 2.7018535977787335
C 1.7197910885621808 0.04072193650532992 4.079038386194508
C 2.653577366448774 -0.1203380975286875 4.997997355133612
C 3.995074854916834 -0.5851960119544526 4.581230785692487
H -3.7246016012858414 0.36971576821638 -5.816361286945495
H -2.5347033672504833 -0.16594287100443417 -7.104198057542541
H -0.8383465213686117 -0.45100291515408725 -5.3798048850155755
H -3.1706438113610202 0.5108764286612626 -3.51077224051915
H -0.24831260703784902 -0.3169795609369106 -3.044893526984128
H -2.589008247816038 0.6493710747281543 -1.162078131800856
H 0.2872906181406221 -0.1767220167451605 -0.7865235808391239
H -2.0430037453570944 0.7899867261584476 1.1223482173174453
H -0.5252792577580028 0.5721094442207246 2.942506382099172
H 1.521661326743333 -0.35181374719563246 0.7096140725198379
H 0.7617110652225636 0.3822208864218239 4.447345581166074
H 4.6242867544109645 0.2549723291970549 4.222883650921426
H 3.884261228097368 -1.3023539268696036 3.749472899413177
H 4.452618855832787 -1.112701898499055 5.443807705205094
