30

C 4.8030745256767675 0.6058681374540446 0.1819830471263686
C 3.567647017932639 0.25621491822140874 -0.2110477067363005
C 3.0929057826292787 -1.0719909788125463 0.10839793250666915
C 1.917469985384589 -1.4663976377721146 -0.24120727616038964
C 0.9569389629968612 -0.654733087806144 -0.9737628347429225
C 0.15283806872575434 0.26751801008068965 -0.08911828186751518
C -0.7712183473732677 1.0181884349608425 -0.9873801080385667
C -2.038921719522189 0.7473208814132999 -1.1105859719619766
C -3.1351644559859166 1.3141589817364765 -1.8994362273223604
C -4.282623384510253 1.1289035634946454 -0.9384883528692225
C -3.997810291222907 0.18631836872270702 -0.06127661039169524
C -2.6467816320651383 -0.3538544783472689 -0.3383717753406544
C -1.86224755851304 -0.720690084784253 0.8553891316164153
C -0.5724143532466928 -0.441660865907716 0.9852225575687482
C 0.10214696874708434 -0.8635242304729115 2.2326518196381175
H 5.117276253906767 1.6068973339168682 -0.07750756997150118
H 5.426431715788795 -0.08967598203547937 0.7239336659651252
H 2.932541355243705 0.930330719792932 -0.7495960941294546
H 3.713968690636332 -1.7824650220076248 0.6552321397270386
H 1.4691523362124552 -0.022769055146181837 -1.7271686904209282
H 0.24402739327636416 -1.3187844898245709 -1.557013216765596
H 0.8358073700099119 0.9947718698367057 0.3827181773538925
H -0.3248750584644148 1.8304995958091164 -1.5553345841727189
H -3.3233724160259017 0.6078822150536223 -2.759494785343466
H -5.181972426506535 1.7010817766621034 -0.9949785049597105
H -4.623211201937753 -0.175255275515929 0.7575129986232955
H -2.35786695065485 -1.2392796316250503 1.6602024133115245
H 0.3289073735997577 -1.9510960683488008 2.134901663711958
H 1.0119191859571852 -0.2763881656642585 2.461871731538767
H -0.5545731906951811 -0.7673897530846127 3.1317513125071668
