15

C 2.139773463377112 1.1670490275846692 1.99516776331329
C 1.266067221690668 0.7874375436909424 1.0934180793792305
C 0.41796410721650973 -0.357811133550858 1.3375480774298614
C -0.4799216420507441 -0.7886734005716726 0.4695509686782447
C -0.6452499926270967 -0.08007764873918696 -0.8258449307858033
C -1.6684166975737376 -0.7063792306941536 -1.708966525141547
H 2.7956703767510014 2.0362310531487764 1.830163466319594
H 2.2828863994069004 0.6751724773368533 2.941348674901193
H 1.162378343996991 1.312961172375402 0.16410685126588873
H 0.5282638480819727 -0.8796522937927906 2.2724951934129023
H -1.0640399537973866 -1.6526577327761667 0.7460394198555307
H -0.7917200686750564 1.0091196127802913 -0.7014661662068079
H -2.5922337135830182 -0.07052285893337437 -1.651025648495245
H -1.968414897843168 -1.698821325464107 -1.3003443805035642
H -1.3830067943627096 -0.7533752623578387 -2.774135239482216
