13

C 2.216695674755223 0.30593641851527903 -0.2841282574640904
C 1.0079864172504398 -0.2663132711590007 -0.36421637630706377
C -0.13790940818451192 0.1482600971273095 0.43288111560366355
C -1.338310019614048 -0.8166992918341812 0.3735132830453332
C -1.4031951367979834 0.6382918741356534 -0.12287325239991936
H 3.0419334649177268 -0.008097979731422856 -0.8722908655181958
H 2.3585580154814534 1.125758303052699 0.41175576370508865
H 0.8960921774992987 -1.08019426221095 -1.0674504865540828
H 0.1348385733583104 0.47654360616160235 1.4718102293111037
H -1.367990289776181 -1.546104543867939 -0.4492503100859214
H -1.8106997304550543 -1.0731442861709306 1.3208977981128662
H -2.022099362706385 1.2775315117131791 0.5397301438771198
H -1.57590037572827 0.8182318242687092 -1.1906152496179312
