42

C 6.561124422250178 0.30589265051522313 -1.8991722508304987
C 5.280730143455891 0.2669447906267037 -1.586085701315932
C 4.853738270812429 0.5643870600941756 -0.2708322811997146
C 3.563753635367427 0.5087719913286509 -0.019236744099488584
C 2.2478450727301102 0.404952255869025 0.10604671371530484
C 1.5317493044529984 1.635329233429713 -0.16393571232852144
C 1.8046316589961253 -0.9106195218974926 0.49321433974423545
C 1.1598256007057872 -1.0408103414928447 1.8334670190761753
C -0.08904704003328402 -0.3044686342910726 2.068514312519282
C -1.2333134389006624 -0.6530650615100061 1.1796317456243763
C -1.7439708522086783 0.32516899921282266 0.467858101521059
C -2.8611855157967794 0.18254797969352732 -0.4568270853459273
C -3.5094423858713 1.0294237837798217 -1.2511589952482998
C -3.2151082955054924 2.4833279627040876 -1.400296303318946
C -4.588320704720402 0.34415739003453694 -1.9922817023075663
C -4.537687635869574 -1.0707152014557815 -1.556512806683692
C -3.4327004876415605 -1.1444955041943177 -0.5821126233349405
C -2.9044991836195453 -2.114473739340224 0.14295573705832867
C -1.7825131477250318 -1.9995548714908837 1.0798151074861293
H 6.870898245718328 0.07797075555186433 -2.90069563344755
H 7.269750602247972 0.5678501719713246 -1.134746327994393
H 4.5830914736212005 -0.0007692584577432685 -2.377064573251188
H 5.405575967525503 0.8366850858061325 0.5859359682010593
H 1.3499751831152367 2.234616279050471 0.7532293989911225
H 2.1463407862885795 2.2637660973945217 -0.8825466819645171
H 0.6086752234624506 1.433607507605266 -0.7561057477213982
H 0.980860307774381 -1.1933556789091169 -0.2501876891612557
H 2.5608723511705898 -1.7174147555035764 0.3541798666927775
H 1.9207173715102703 -0.6099226285736568 2.565881991173282
H 1.123993869215631 -2.1143030846952557 2.1438686498791695
H 0.036306544986439745 0.7840042440595435 2.0703637329352236
H -0.486119070619664 -0.5425896302096711 3.1103687020228143
H -1.3394843359744961 1.3572442565302731 0.5462970332004978
H -3.417093761501866 2.781964392758382 -2.443932256823806
H -2.1671917838508663 2.7140629025342116 -1.1143008001085863
H -3.900413543968099 3.0893955878008086 -0.7527877999140574
H -4.374685965827265 0.4834093786207488 -3.0744961447215
H -5.509599586116162 -1.3709162502792165 -1.1142629284749856
H -4.275132324307058 -1.712783328149498 -2.4311862871413736
H -3.3990152633216155 -3.0975279601113885 -0.011384771462098505
H -2.141266460980554 -2.4108336238095887 2.049474167944943
H -0.9526652510485589 -2.666861682600762 0.7530438835455019
