17

C -3.351449834459292 -0.03964592256709303 0.30036767706565237
C -2.0596579617239 0.18437932880944474 0.2675239451913371
C -1.085802717624269 -0.8220693213358826 0.6862598897003246
C 0.20896013562211646 -0.6791081931112182 0.68445402782423
C 0.9212748633034662 0.5417012542480151 0.2529166950861188
C 1.8025338074554713 0.1652494313048545 -0.8856765653377273
C 3.1203614011299727 0.3027311400847038 -0.8783765857334673
H -3.7804033561733066 -0.9745841838156676 0.6359985193042257
H -4.04564194359867 0.7245578459943339 -0.015789963049398375
H -1.6878236631571457 1.1299975256140677 -0.07498351526644192
H -1.4711522976255704 -1.8053314017530775 1.0415331640409626
H 0.8271339269163305 -1.4965419859927953 1.0174918835913132
H 0.2769873956298027 1.396929896506454 0.0049197182672703465
H 1.6401837084829203 0.8620035865037033 1.072585722102441
H 1.3274594203820635 -0.24350342777634054 -1.7650798028326633
H 3.6008349608209 0.7170004371604003 0.01328034268433843
H 3.7562021546189976 0.03623399012568634 -1.6873493182157173
