31

C 7.0684467955706785 1.7641641220054445 -0.7018297379943793
C 5.911707338709247 1.1949902255043896 -0.5212401820881373
C 5.140505755866571 0.6684657613768361 -1.6414203108187728
C 3.976190418714697 0.09046127687366283 -1.4962815546887012
C 3.350701991644541 -0.0709235272647311 -0.15502092340035575
C 2.0878371790506884 -0.839348370100615 -0.2715440875243213
C 1.1162359614591728 -0.7638433104707468 0.629420428599207
C -0.07212293001378123 -1.5313914786149272 0.45366565188794755
C -1.1851873345069999 -0.8486405519651454 0.23588675332975567
C -2.219325458282166 -0.06783152308589424 0.1176194412266732
C -2.8701729118951578 0.3200502038190477 1.3152835032801693
C -4.150450776112174 0.5620540082409357 1.2334308565778398
C -5.441592963932186 0.7041528360781876 1.0775283924941812
C -6.241633968455301 -0.497083055114593 1.2330343457653548
C -6.326513440842001 -1.3636717044696942 0.01822090919943499
H 7.5025174963460834 1.869387493836748 -1.6860251424831454
H 7.6033847125335186 2.139054625878523 0.16086852569389895
H 5.468921367060418 1.0859294454835509 0.46679515202344424
H 5.558795052464023 0.7660054274494402 -2.6263398947149366
H 3.45396113898542 -0.2783415114931067 -2.359114692658904
H 3.0902641696348803 0.9349729055628715 0.2034930631591234
H 1.9916526063845672 -1.4854244843622575 -1.1527415486578758
H 1.2432526648736102 -0.12702190474034644 1.4737096252989639
H -0.23631727057297974 -2.5724746388026674 0.4656727851631901
H -2.4625566131780987 0.19804133891188222 -0.8886090831405417
H -2.472279881553348 0.4455679273676903 2.286176683875933
H -5.737518429199911 1.696960949520927 0.8523030901684201
H -5.968186391956963 -1.0805839575067917 2.127089582839671
H -7.403806219572218 -1.6843114595845765 -0.08667077874099918
H -5.681277649333626 -2.2511263747785755 0.11165528771489228
H -6.095432409912973 -0.7342097084051495 -0.8750161413414705
