28

C 5.417672582272639 1.1244341577268104 0.9445411781474462
C 4.3259670943367485 1.217548487632744 0.21043740439691028
C 3.272742583265997 0.19413405244209617 0.30323382106335817
C 2.1840148272229536 0.30544777646164567 -0.44210870971944527
C 1.1589925190612298 -0.7483773955679006 -0.31019815858019334
C 1.2122854967780392 -1.4380028002685135 1.0309106887116066
C -0.1703306569779888 -0.14475606628967808 -0.49387639545202905
C -0.8762036799535576 0.41164277739542954 0.4705040884246384
C -2.208430427068194 1.0032832414121642 0.22649271647597158
C -3.0240637332491103 0.06712758540462535 -0.5964996688613194
C -4.328523239391897 0.05180771408160443 -0.4402875674948248
C -5.155618379070191 -0.8816886882740367 -1.2591329538526168
H 5.564561651951963 0.30460590552789496 1.6242076265226981
H 6.169757139122131 1.8687741451146123 0.8685121720040186
H 4.205619224346905 2.037940029771213 -0.45340963075057966
H 3.4238454102589557 -0.6304892897899472 0.9888911022473507
H 2.0811949848517806 1.1468772350645302 -1.1102188022741575
H 1.8667850821752443 -2.3291299722780012 1.0151054598559948
H 1.484681171597782 -0.771242515149686 1.8478423587195767
H 0.17653938150952042 -1.8321341846398669 1.218152708175891
H -0.5844730378109115 -0.17031056759362823 -1.5127544181049688
H -0.4722596066777458 0.43673807594682607 1.4651854730348206
H -2.1532350473841357 1.9915312728958383 -0.25175226453164895
H -2.5761487966924497 -0.6026651758412955 -1.320890150929378
H -4.789807107172977 0.7195372628090393 0.2837962722081534
H -5.981782977744805 -1.2299210158612364 -0.5814653845727354
H -5.639483210047463 -0.38878788491403266 -2.105643139876383
H -4.584299249510496 -1.7383529816179355 -1.6195758249877168
