19

C 3.4677993570403434 -1.144788415705527 -0.10175383395268993
C 2.9063633732430403 -0.009088704319138566 0.23262495755355692
C 1.633234447107562 0.4499138072309028 -0.4201273633115266
C 1.1560316618015771 1.7561523846292801 -0.06517217741349053
C 0.4640746848688389 0.6636747253671036 0.4711788265980369
C -0.5731046033045615 0.10453313525032493 1.2672950140129717
C -1.5649656786856645 -0.4546935046515355 0.638907989283613
C -2.5572929621600062 -0.9150976580060862 -0.08749215192221461
C -3.591620068877736 0.05044724541765723 -0.43382439672090095
H 4.372082771366164 -1.4562327158785644 0.3716008616708271
H 3.0017613834522483 -1.759704817225367 -0.8626834479434672
H 3.3600450113763216 0.6219263397140958 0.9951837798580133
H 1.459217313852046 0.12394279041870267 -1.4659889334791358
H 1.1923423582625339 2.833059792121465 -0.10071363829109561
H -0.6728240204377365 0.06985702962503813 2.3296176135121476
H -2.4723552017898527 -1.935144874434172 -0.32790078269126033
H -4.37093093299882 -0.39488545330878655 -1.1085172740069213
H -3.1189497072298664 0.8879859275317121 -0.9896111739719593
H -4.09090918688642 0.5081429662229264 0.46021427026783956
