45

C -7.353832926318379 -0.754981597572941 2.1388215340569996
C -6.062630779081269 -0.7927755583129545 2.2700270159144784
C -5.157832726589545 -0.34989637654642897 1.2251151153846211
C -3.776744589043862 -0.41316161527422524 1.4207372659360904
C -2.853708697087607 -0.015507302246690086 0.4860425897558631
C -3.343517334077292 0.4725892444273134 -0.7110685965272749
C -2.446769034112762 0.8994327989059958 -1.717249638773578
C -2.9366560118367615 1.3836284558351704 -2.9049076439093415
C -4.2846394151419505 1.4617828439696687 -3.135582846588488
C -5.156776624864799 1.0500613696243606 -2.1652699339512833
C -4.681104496969085 0.552978521808353 -0.9468301146745245
C -5.579225095179239 0.1385725290788568 0.029198296360947246
C -1.0760621054247852 0.8177815505876871 -1.477405878478821
C 0.027580827479083962 1.1614298025028673 -2.27575545186706
C 1.187159673843161 0.9064664954981997 -1.6226784292510243
C 0.898593403732853 0.3535307514980516 -0.29244960355112476
C 1.736078622893724 -0.016388177721080546 0.6291287084460794
C 2.591422104990421 -0.6156848768412222 1.4081882231041305
C 3.4316605736438945 -1.449252588988181 1.9764693922865675
C 4.761079165571866 -1.708150615776048 1.4471674643806243
C 5.547341192288256 -0.6775795944340555 1.1966434735232427
C 6.902898912500951 -0.8557995234802233 0.6614688468681248
C 7.682904382604583 0.17865285425041838 0.41358409840762017
C 9.034311950698463 -0.01631538549325675 -0.12086439379727058
C -0.5732920622882034 0.29784706492216523 -0.20279731112815555
C -1.413985656724861 -0.10698714193902047 0.7518061756401552
H -7.814969159173407 -0.3908766133009888 1.242746790799061
H -8.021097080038826 -1.0862230112522782 2.9206209166863624
H -5.641292882955113 -1.1739578720843202 3.2062444387354683
H -3.3962802388481688 -0.7958705740639102 2.359257976042523
H -2.2351113310427584 1.7206387707383168 -3.6995499457358005
H -4.6483897082841645 1.854095199366627 -4.096843686358572
H -6.217715944684486 1.1006542427563277 -2.3203989669109397
H -6.61111377718257 0.22466838810095083 -0.21097297391797756
H 0.056862356901944563 1.5740843577042698 -3.2742329710879168
H 2.1714434376360034 1.073614690439974 -1.9972478165463514
H 3.124294320699262 -1.9554483016924102 2.861669484028287
H 5.147442093090918 -2.6930165506362767 1.2452832475311453
H 5.21357049825157 0.33537818845789874 1.3795942704765012
H 7.280924438529333 -1.851825227467868 0.4622354818585692
H 7.320314833745732 1.1814190884747544 0.6071899877666109
H 9.211348441729985 0.5925093065048421 -1.0327565997462893
H 9.167814199106363 -1.0846973430817655 -0.4543491478957871
H 9.808915544548494 0.14934431951717125 0.656309508494836
H -1.021213297537013 -0.47853151346484896 1.663661648212749
