37

C 6.1966759270981235 1.180849324247807 1.917008463227053
C 4.883067170845702 1.134385250671251 1.7379493813627627
C 4.327624260712923 1.2434634796990944 0.3481314749038516
C 3.5587573399625194 0.011135539792594466 0.04570203197395985
C 2.279937749955948 0.10115642401068313 -0.24509156301856133
C 1.4741283225781006 -1.1201722841299027 -0.5550849515660793
C 0.22464519208667882 -1.0355884686257464 -0.8395334013615438
C -0.7202870229939258 -2.0020852373738616 -1.1568591237797932
C -1.9302257836859678 -1.4462083043067981 -1.3847292433083618
C -3.0679569065275993 -0.8609626537717188 -1.5453713367259558
C -3.9069091091756514 -0.8003401284847841 -0.3505824466906331
C -3.294023069379271 -0.20431922897844243 0.8243175744479853
C -3.40004261790678 1.0840920888141274 1.1240783167803434
C -4.175672830814919 1.9925550941849943 0.2382438706481765
C -3.275935363995221 3.0972961238495356 -0.29505425144097186
C -0.7298453434460825 -3.4137519069663598 -1.2991363264677191
C 0.24511087286156624 -4.2783929663783775 -1.1568751215165505
H 6.613605694639669 1.1036145660048553 2.9128260312709218
H 6.88434592684866 1.2956937971327445 1.086833760791942
H 4.239135561002057 1.0184859144970977 2.600808195606224
H 5.151468113019283 1.3532049856973978 -0.3684196333398628
H 3.6609996814625996 2.1344494164056136 0.2664788154931318
H 4.073777236800889 -0.9271016884362211 0.07335030036911849
H 1.7506835375888234 1.0282488090659643 -0.27718418894916286
H 2.0842067447555164 -2.0184016990613682 -0.5011773682707822
H -3.240183627897652 -0.5075347382735965 -2.5215575451076773
H -4.960150891251312 -0.5803969241857433 -0.5195647075517272
H -2.718658603274075 -0.8262354401965624 1.50022610745715
H -2.9405653700429215 1.522395073462597 2.0018161729226103
H -4.973599444280847 2.448487928569925 0.8646257656696195
H -4.641925980564078 1.4330886136668606 -0.5981103316095618
H -2.2883214809391714 3.019018871309428 0.19992028656509353
H -3.2187809847058393 3.0134060636300317 -1.3863426153591527
H -3.71742007103159 4.082860691110636 -0.05115848128258578
H -1.6987546432159337 -3.9029897106384346 -1.5748168128303017
H 0.007676732745487174 -5.3440115132481045 -1.3181166598847651
H 1.2434130801642267 -4.029395162767559 -0.898712947653029
