17

C -3.1735150768419107 1.0505385305301542 -0.08491521315122533
C -2.4944849481970124 -0.07836886510229239 -0.15726545529463887
C -1.1292604510533337 -0.18098268412271273 0.3225291202186262
C -0.48274971364174746 -1.3308172955915911 0.23199405511791327
C 0.8805102780387719 -1.5105234751320629 0.6888170645268382
C 1.8409999022591514 -1.0981088914079014 -0.08953858997428597
C 2.792168781798514 -0.4490732959975817 -0.7437838814196578
C 2.9636166158302832 0.9921195763873769 -0.34141116642271074
H -2.7070368236505935 1.9265431296005473 0.3418960828761435
H -4.189569983206224 1.1569981398103968 -0.43332955252574906
H -2.9692274767977955 -0.9442996429077993 -0.5842339365527586
H -0.5904775647357572 0.6470048350220458 0.76248034312183
H -0.962575903935497 -2.2200056433392485 -0.2036476134032168
H 1.0596717625898948 -1.966063641713805 1.6399709130056184
H 2.8578944945485034 1.135489641577428 0.7385257774284413
H 4.036915926962358 1.2252521884885035 -0.6003389565330232
H 2.26712018003248 1.6442973938982377 -0.8915389503108201
