13

C 0.31775211744091003 1.3397579355024798 -1.5992069601576597
C -0.43298750336525005 1.0653313819079464 -0.5547964641928067
C -0.25767145674024766 -0.1648711503725332 0.19174464300157845
C -1.015583263627998 -0.43729953474669064 1.2425749605772323
C 0.7862756259327522 -1.1666124538297593 -0.20191849401050752
H 0.19793870994834714 2.2522529303321366 -2.1643120422322646
H 1.0954083566479775 0.65051325873194 -1.9361543903894323
H -1.1892489040688683 1.7604090557356118 -0.24615407542781853
H -1.7878471568773258 0.2817999806573263 1.5506057525135029
H -0.8919861026325973 -1.3490759650286208 1.8029257127157174
H 1.7022003708284739 -0.5981831998134925 -0.4420794281845357
H 1.035515390461631 -1.8132513500090879 0.6880586230930522
H 0.44023381605194273 -1.8207708890676533 -1.0224307918820938
