14

C 2.875834675449536 -0.8584095853517766 0.3430604263012333
C 1.862341005217473 -0.028910370132589836 0.49378025912731965
C 0.47579212151448186 -0.4438227210109564 0.41760605705973747
C -0.5361957857985703 0.3942230191407873 0.5698986524978924
C -1.9421609814920742 -0.07503872141879477 0.48381209191965513
C -2.6783874184143004 0.5159342407097741 -0.6788300738056648
H 2.6983451744779035 -1.9034191161540774 0.1525783857292395
H 3.8964116820256 -0.5248894891258246 0.40423083510510455
H 2.08689820210424 1.021400176173637 0.6852480042521131
H 0.271716690141068 -1.4890440514447458 0.22703296833994072
H -0.37695308656991633 1.4460240129048865 0.7615996883917692
H -2.962174722571783 1.5692190975061302 -0.5127117939479173
H -3.5857134278572365 -0.11738531304895122 -0.8535508577793877
H -2.0857541282221623 0.494118821246071 -1.6283725391391355
