52

C -8.886518644825628 1.3431922192243626 2.4437268041880307
C -7.6606114671270475 0.9603768782009674 2.099478188935209
C -7.476979753404714 -0.11090935618340167 1.1477080549583307
C -6.282407082666103 -0.5024114879984629 0.7958809668504593
C -5.02670635351764 0.09482576025737532 1.3215501279720379
C -3.873484780052964 -0.21945699402101873 0.4246108755121446
C -2.7558189038713694 -0.8751566283167422 0.6986169110821444
C -2.45136251801193 -1.4418653056734334 2.037112475079723
C -1.9076970355647151 -0.9448579506293782 -0.4862333100904448
C -0.6646496666326064 -1.4929966520674698 -0.770932855690438
C -0.20358759062100423 -1.3366321700887969 -2.0473808562822065
C 0.9639924988536654 -1.860145003429868 -2.2743135781010877
C 2.184062783112406 -2.2805509876964996 -2.5187023534393953
C 3.2343485039424698 -1.3091986006293055 -2.2635057192154937
C 3.1307021283239376 -0.20734683879054105 -3.2997213879364353
C 3.028100526664215 -0.6643684575205719 -0.907202862322186
C 4.111802949842789 0.31484541840287067 -0.6869691800354168
C 4.9346801187439615 0.2005029216842513 0.32609884328450295
C 6.016031656722743 1.1271951574326957 0.5956903770451856
C 6.7997921086484405 0.9328130150303752 1.6450373182115778
C 7.877668879774091 1.8637423823793446 1.9068082674391391
C 8.66010262175175 1.675869282791858 2.948409061904542
C -0.8237274163866934 -0.7069486982401967 -3.065048863741716
C -2.078823406469232 -0.15849196291243228 -2.7613087382659702
C -2.611524763922444 -0.27634186488876916 -1.4908813933659966
C -3.7747599202329805 0.16146224887537944 -0.9798433409167472
H -9.74523129802687 0.869525585321231 2.026166548746925
H -8.978808928653345 2.149416183299355 3.159883112757026
H -6.775348138692613 1.4365168446449994 2.51926893133958
H -8.332007047730253 -0.5993791529809108 0.7170023556005246
H -5.167996529480049 1.1976582480207465 1.2904532961809123
H -4.86990313365209 -0.3025367351698492 2.327153809918263
H -3.075852979703936 -2.3510832635398327 2.163555425283346
H -2.7901017073749217 -0.7067900817179464 2.7923191727391505
H -1.373387277081037 -1.697680718437266 2.13692648025499
H -0.1538294963595674 -1.9993794590645746 0.027301121513539955
H 2.2068189874373956 -3.270811164807708 -2.866225321678777
H 4.142876400645356 0.060741831922497366 -3.720372709539524
H 2.6283467765603197 0.6905278590909096 -2.939630230416079
H 2.543274737292482 -0.5529297684729295 -4.198747645894378
H 2.986924527141981 -1.4447881993874365 -0.13314649627146696
H 2.024837827194761 -0.16171791198081056 -0.9388390618697849
H 4.2306502030697715 1.1394248122170576 -1.369945809915207
H 4.799175629092015 -0.6321107569713241 0.9985266765236863
H 6.179834713370514 1.9751211249779013 -0.06128082071305083
H 6.665589809619289 0.09892757547268678 2.3201817084088714
H 8.040426091020057 2.699756286962129 1.2605808975440105
H 9.46482098506124 2.3631470215830017 3.1514514513637444
H 8.510384873816458 0.8348925505359388 3.6138878645431984
H -0.461654367527394 -0.586124083473399 -4.0612104747249855
H -2.6464029196100882 0.3678822247751449 -3.530330294761731
H -4.51606321049939 0.7075952829908532 -1.523613819991473
