22

C 3.0991610837921844 1.1586738445949711 -1.9347765494614346
C 2.444732879657601 0.6979806460472873 -0.9005337817620724
C 2.830322951739566 -0.5724531474045991 -0.3199763166446937
C 2.175379831938994 -1.064756344391542 0.7391884545764955
C 1.059708603702934 -0.28898532918377634 1.297528054660182
C -0.17296473419487862 -0.37502818145651556 0.5004819326308964
C -1.382343936731058 -0.29649907186212593 1.0397799319044927
C -2.5903839431971845 -0.3910379297757639 0.17578541512989876
C -3.9348058636436885 -0.5251850715027985 0.7783459865034248
C -3.562413517110815 0.7601333454553962 0.13642692200474577
H 2.856677518485667 2.096077252338806 -2.4067417087668814
H 3.914357115942122 0.5899045011762353 -2.3412237334195045
H 1.628461926709119 1.2882979261119876 -0.5095149409025833
H 3.6621447674852456 -1.1183674665362329 -0.7613655148772663
H 2.443794372127447 -2.0015670680351767 1.183874063097531
H 0.8575055795635137 -0.48099951318487527 2.352862977072003
H -0.06466603696231227 -0.509285757241058 -0.5794142397171632
H -1.448963753626464 -0.16391732916235993 2.1094008050187165
H -2.403639985864209 -0.8419808376471627 -0.839956799200667
H -4.0527995245593464 -0.6245188199775402 1.869725095652398
H -4.0666129985268125 1.0079923134953226 -0.8203647019623478
H -3.292652336728548 1.6555220381404254 0.7256677918759854
