21

C 4.591677896697873 -0.5446542171531191 0.48301903551146697
C 3.545350502206277 -0.4349402999629389 -0.290698259104747
C 2.1986536899843525 -0.3936672624942458 0.29038461447644803
C 1.1223313110861006 -0.2836414274967533 -0.46111481015008937
C -0.20931848679957113 -0.2444716625702139 0.13939192846412604
C -0.7381024889478371 1.1920733910777033 0.42925750504429105
C -1.4056854937047005 0.23048656781364238 -0.5782160768854983
C -2.7217287878882552 -0.3366204696864931 -0.1475422972362644
C -3.892230314842419 0.207316504213182 -0.9382690919822867
H 4.4740149862633 -0.6052405276895265 1.5467364600992408
H 5.578070911636094 -0.5754388021718687 0.06597510764862935
H 3.6707333853449526 -0.37475263312552465 -1.3552349728755237
H 2.0774696586516685 -0.45438875322653755 1.3597907450559104
H -0.36358208842777423 -0.9727404589500364 0.9765486248377335
H -1.2316637361386904 1.3212105930046176 1.3911392776235416
H -0.15627722156633472 2.0238451013994325 -0.028800990597318468
H -1.3718381686644077 0.5561629802891409 -1.6323253181522839
H -2.7271760733486765 -1.4422658144649998 -0.0903112504978158
H -3.5397023985505007 1.1266028628219789 -1.446777974626089
H -4.666845369439695 0.4971621829587322 -0.19552888772253332
H -4.234151713551819 -0.49203785458624805 -1.700057705974997
