21

C -4.955420531706707 0.13695184186370568 -0.3190862915856411
C -3.7597385013454203 -0.4389276846014173 -0.36454217059637695
C -2.6328074012939555 0.11253723214824238 -1.0465579621014958
C -1.5158072985930453 -0.5640442650655932 -1.0082150576183078
C -0.4164783416198384 -1.2568715286169725 -0.8537695076381536
C 0.3734632820248087 -0.9336218257877132 0.29870241757816857
C 1.5627756853128782 -0.3824379770938088 0.26297845238539036
C 2.2706181048165726 -0.09967202206498496 1.484778591530046
C 3.448964353665079 0.44180471522225256 1.576279370935217
C 4.174858575030649 0.8223449118981987 0.34306143600280103
H -5.783621937969885 -0.3000595374199701 0.20067747599331445
H -5.101081376372054 1.0709119429456508 -0.8181365181731811
H -3.6820277877121197 -1.3757320817563672 0.1575266025073392
H -2.5595137482471193 1.0228050558365476 -1.5997993529147185
H -0.25622907251454274 -1.9804839118729234 -1.6147417872050234
H -0.04326894713572812 -1.1627005536397284 1.2979206667513854
H 1.9995585108232221 -0.1459618685015094 -0.6848381122481653
H 3.8864964596407936 0.6090309444849187 2.5389922376094147
H 4.01344153733167 -0.001466558999522793 -0.3929310922957195
H 3.729697839845792 1.7749193188705579 -0.043841026732202464
H 5.2461205960189 0.9372629384729703 0.5855416278158703
