29

C 5.250680233036751 0.42557313363742677 1.1779831405888346
C 3.935446039685408 0.25718862690303185 1.1288194624190224
C 3.2689662329091043 0.07954051191187257 -0.1872104310191321
C 2.5579965967855305 -1.273900082012616 -0.2173117381403977
C 1.5749814352465656 -1.270356612556925 0.8591759004796797
C 0.6025099394550174 -0.406901826944619 0.7335107950089466
C -0.39619182060622843 0.38995084443084627 0.4878029058163952
C -1.4838514355371615 -0.12884746150913598 -0.25824877474010616
C -1.355572804661169 -1.1441152648988628 -1.3215043408540454
C -2.6884459731450194 0.3244915972844445 0.014821406974369632
C -3.051386849033502 1.3237091755375339 1.0196576453827362
C -4.351241801703415 1.5230730453969314 1.004386380725373
C -4.890621127191108 0.6440868136557848 -0.030469857354075452
C -3.959447816919884 -0.052460112492774075 -0.6117270144445889
H 5.844698961796945 0.43411362031986883 0.2560828625922201
H 5.8026704696709706 0.5598950391744423 2.0887479552869053
H 3.3825028151347243 0.2536933716427479 2.048928501715813
H 2.461366464024417 0.8491015998874792 -0.2716751499160569
H 3.966817424507183 0.19114610975232058 -1.015739183203491
H 3.3549139972467943 -2.041750311299539 -0.0307397423254357
H 1.5247683981127178 -1.861532324570698 1.7304215717177236
H -0.25628743810089477 1.3714408353974774 0.8976361198410044
H -2.2706308900075447 -1.7874526856153294 -1.4164344224645558
H -0.5296960410779109 -1.8436269823298306 -1.0099868021462794
H -1.0787538132125607 -0.6901798393893515 -2.2913180591299267
H -2.3393511687962545 1.8123751210647638 1.6674234290631187
H -4.87406708938207 2.2151943378394363 1.6526886743545404
H -5.962066380060677 0.6193446226609262 -0.2452645537334799
H -4.040706558174462 -0.7727949028776518 -1.3963787614102676
