25

C 5.067717792225586 1.041293409946383 0.11232425807854067
C 4.00379911832521 0.2864689534404871 0.36175562935743877
C 3.0911120028701786 -0.025810720546147328 -0.6803126501303521
C 2.0619877332435705 -0.7727706246623643 -0.3755973267114246
C 1.0062491193395258 -1.4474897777671234 0.04555380461623855
C -0.08113728689874264 -0.6570936994793741 0.5207497222353483
C -1.0915116264353322 -0.37552582248173344 -0.2666042992576418
C -2.221454261479489 0.44408249859767135 0.2225022757338111
C -2.385229149655678 1.660305149345435 -0.6986763235968443
C -3.4627682656788177 -0.35236847117778247 0.12662353061633827
C -3.4227702494378787 -1.599693466330008 -0.2910178511781865
H 5.269724605253112 1.4377421051409667 -0.8833975380707526
H 5.795112879507436 1.3098465399271289 0.8691137910872905
H 3.873654627010262 -0.06495114136572071 1.3622100105355346
H 3.115765218413086 0.2630372006716981 -1.6969808898032452
H 1.13110937482968 -2.4894779326225187 -0.033265004927070296
H -0.09679390359498265 -0.2761872478240668 1.5303544071726427
H -1.0877666616520958 -0.7487286242329294 -1.2775247142602535
H -2.0230107911413047 0.8000207906550469 1.2547131838386631
H -1.4927467805898182 2.277520571368549 -0.6178913765298392
H -3.316411851806317 2.16132303273027 -0.3641243571696074
H -2.562526454438044 1.3228860483897953 -1.7402772207447703
H -4.3951218094653814 0.0888767436586981 0.39815272162888377
H -4.298435090859492 -2.2321456432166364 -0.382055968648545
H -2.478548287884835 -2.0511598721659574 -0.5668310124796961
