21

C 3.9896479566489154 1.694696871395161 0.24105908235463414
C 2.7304698058900083 1.3154327111783033 0.2593081424140569
C 2.3429435915081833 0.031885371785173484 -0.2740354176001011
C 1.12149276782596 -0.4305412252793452 -0.2999896789132141
C -0.038388577711022095 0.2814348156660766 0.20706456706319543
C -1.2494424673694968 -0.2064653821956223 0.167464847429646
C -2.464122162977665 0.4415193384244237 0.6535051013837635
C -3.489752601412349 -0.09405103783295596 -0.28263957063341644
C -3.0412300998926804 -1.1977814290059143 -0.871913324000724
C -1.6482049884422807 -1.5008589135562551 -0.3697276527243661
H 4.759845270258981 1.0567292233146657 -0.17193516720979618
H 4.251128803108416 2.6525476555213587 0.6433211957930405
H 1.9905554938621617 1.9713880099378795 0.6759403690575486
H 3.1393635244580818 -0.6196579381567119 -0.6973404081991783
H 0.9045835239165559 -1.4271214411913207 -0.7264787119314723
H 0.16537353016624198 1.2712548976671536 0.6332327695991714
H -2.6957571983688977 0.28673539314386615 1.7036536746347104
H -4.449986455378807 0.3533398803834616 -0.4508819657314395
H -3.5915476500010506 -1.7670307503565243 -1.5845406604882268
H -1.01766220056789 -1.8937404318538678 -1.1885120735313828
H -1.7093098654041994 -2.219715619011735 0.4901336444122556
