20

C 3.561058042719415 1.2058027384363978 -0.3462665039971263
C 2.7350994636976615 0.18486020891308344 -0.3325247198446038
C 1.2795726618260754 0.37999812963847196 -0.18323808225721355
C 0.4796167924724386 -0.6633666811723267 -0.17335741069990385
C 0.6900283962882834 -2.1294045154788503 -0.28511929658830293
C -0.5793891258534816 -2.431296864770333 -0.18454457584610232
C -0.9101297960191768 -1.0092835115968 -0.06421605626499072
C -2.0642684747058584 -0.38046031499525107 0.08388400142258325
C -2.145970062414617 1.0383714773767214 0.1805802455689593
C -3.3536282422280617 1.60344516972807 0.32972741558431345
H 4.604865095388359 1.0336873918854383 -0.45534294252961893
H 3.1685530871361642 2.211388936757349 -0.24625139012406813
H 3.111217267611294 -0.8225294883476936 -0.4311202593346635
H 0.9385077614735641 1.3864974483874128 -0.08798939088086163
H 1.602950269040906 -2.7197676786122518 -0.4080946245000962
H -1.1618280243439987 -3.3324703630204926 -0.1862336419393746
H -3.0044518638077506 -0.9698573866373904 0.13540924681082828
H -1.297457321103153 1.6858523400259178 0.1413108966717971
H -4.265461095202269 1.0528562991485682 0.3810347110130219
H -3.3888848319757257 2.6756766643339716 0.40030631865220306
