34

C 2.0660345583305135 -1.0510005285151318 0.2031194991177794
C 1.0314934965715477 -1.2485628628079508 1.0064047458652319
C -0.10143856380583403 -0.42239416387368084 1.2979207025305397
C -0.49138674806725025 0.8234395580157595 0.791712254959494
C -0.32086298364665256 1.631061076004162 -0.20775575793524134
C 0.44150226564621087 1.5677984874097504 -1.380029467319836
C 0.3286681345644812 0.4767861226735657 -2.292639615276677
C 1.4574253429756931 0.508093052629093 -3.030814309538695
C 2.3132566940459927 1.6078765088006965 -2.6136444206424803
C 3.6598367064221065 1.9632780151094507 -3.200066710408367
C 1.6849654026707734 2.2374061324119094 -1.6166293225306319
C -0.9253316117872341 -0.9660235233385706 2.2573626367647455
C -1.4240005110064773 -1.9083607774198266 3.2412770505461426
C -2.188861400258106 -0.692700325596194 3.0655629861466482
C -3.4050452831113356 -0.5367942008994514 2.222863894141772
C -3.6761428188037257 -1.777800475746122 1.4266997264535473
H 2.1453086446044183 -0.16041029864314704 -0.33841061949489026
H 2.8495560018392165 -1.7977378850934318 0.08011621227503245
H 1.124003252886237 -2.2612160915930843 1.5154595923850587
H -1.250874808600545 1.3293083095441651 1.5733735801819881
H -0.9177216121250488 2.6354361133247903 -0.12535717137651564
H -0.4701122102458518 -0.26162802392432855 -2.412004370785553
H 1.639279526432935 -0.21518915469752498 -3.8106662163082463
H 4.161550665394841 1.0164798606709982 -3.5419922207467036
H 4.289286037685842 2.4628817989434437 -2.441867777250518
H 3.4395090084307465 2.658258639557356 -4.04743689811864
H 2.1388775914462546 3.097142825655752 -1.1374758156122415
H -0.8643215090026231 -2.0451546109087437 4.200614549216623
H -1.8731851705442268 -2.885368518833625 2.8938609520734415
H -2.089219436993043 0.08324203917857644 3.879761505739009
H -3.457169500997271 0.39857808855588855 1.6463691258686393
H -4.270466337506079 -2.47008490336458 2.0902356438201917
H -2.750809023035644 -2.3155948078674595 1.1255722680287592
H -4.293603485850748 -1.4810454058295264 0.5359751633643763
