16

C -2.49575966766972 -0.44051024369266856 -0.09983472148541525
C -1.2964270778158182 -0.9986906548462721 -0.18414348324196259
C -0.10114185256840721 -0.19660785172569623 -0.02820525046176094
C -0.2791868753061313 1.2549632804242363 0.22604575382986922
C 1.0741200444032004 -0.7702881772013833 -0.11548336005003548
C 2.330042290957769 -0.0006941350308312628 0.03542228412471128
H -2.603000911862787 0.6006125120972444 0.08280333658449941
H -3.364984115854689 -1.050004562123397 -0.2178642755671712
H -1.1881309412326853 -2.060355043976468 -0.3704534629317999
H -0.7822937176705868 1.6778127208583231 -0.6733035656721901
H 0.6731645679953694 1.7801816906742378 0.4154574363952989
H -1.0106623172294087 1.4129065102398184 1.0713970831627613
H 1.1439625148936465 -1.8266512445324745 -0.30123067534144543
H 2.230763964065197 0.9268601299648788 -0.5869747028278992
H 3.2079564271719336 -0.54019414718575 -0.36725138383013645
H 2.4615776677231778 0.230659216056173 1.1136189873127158
