42

C 6.43951689049153 -0.9431602668246916 -4.220232263312395
C 5.319126512921658 -0.34601991218986494 -3.772776823464058
C 5.032550483002166 -0.34581108621182727 -2.372232083235718
C 3.9368411278885684 0.24563737025700833 -1.997112026606918
C 2.8143270344492057 0.8613711151190864 -1.7197798946657892
C 2.9464434934261727 2.280157801032731 -1.4603917369382127
C 1.6368003349585973 0.018225409557815386 -1.725778785817256
C 0.9920120038208217 0.059564379440332785 -0.35186624381007603
C -0.23190609028892809 -0.8124121014328612 -0.3467499288383625
C -0.9126482174736922 -0.811420544646643 0.9870378346372342
C -2.1558451078385272 -0.3749162193539186 0.967747979204515
C -2.9955855969665115 -0.2916566096573825 2.1495386857085657
C -4.23368768961485 0.13257405142818068 2.1892931545709127
C -4.972542501827871 0.1597773219012942 3.4891548186056407
C -4.914727344308074 0.5801047032775307 1.0020561601453908
C -6.1651713891944055 1.002531315884306 1.075735113030811
C -2.3213816949295167 -0.7462935460925618 3.3906559614778007
C -1.088558329240918 -1.176286074885269 3.393671042989329
C -0.2665179266132919 -1.2511072241237071 2.1991849620316306
H 7.1296854803105525 -1.4223338869152848 -3.5570849375950204
H 6.609109899666841 -0.9157687135824054 -5.281874170661499
H 4.6715188025104215 0.11587645508118508 -4.498053279523191
H 5.5789253866863175 -0.7575677887864736 -1.5748140635125618
H 3.1289601737391264 2.434741171332268 -0.36553813607818975
H 3.745982760517567 2.7887632514037577 -2.0207645836439365
H 1.9826678503849156 2.815362201626709 -1.699238147963123
H 0.8800718580715947 0.5076787545610079 -2.4095574503150687
H 1.7682038913236569 -0.9908095862748018 -2.1043980526084067
H 1.6828178270017373 -0.13304550384066524 0.4644183887319931
H 0.6338420338093491 1.121747802449642 -0.21721730096736022
H -0.9190414952391543 -0.5358916633949085 -1.158533295804154
H 0.09265917515098764 -1.857446376398535 -0.5291642108125916
H -2.610679042478936 -0.04979285724144322 0.028204401947576035
H -5.822976132701793 -0.5481691506720251 3.3944804772292523
H -4.318962373580048 -0.23453108457759272 4.276892155401779
H -5.381184562291457 1.1632233113167632 3.7144567053139297
H -4.455731349663282 0.5921347377635624 0.032101256775704905
H -6.696308881915336 1.0170773196657787 2.0377419029719284
H -6.692199825168011 1.3374823746891662 0.22111889599999307
H -0.6019891268746579 -1.5115418041422388 4.329833982406726
H -0.022170947717240392 -2.3630148940406492 2.0684437536335953
H 0.7577526057950066 -0.8150339525004835 2.3490824822153673
