24

C -3.604062854880141 2.105265826155139 -0.05989813255014056
C -2.457224674358234 2.1345353605581314 0.5837752667987821
C -1.5401987110529536 0.9857633272217783 0.4275792906029341
C -0.3523198470024559 0.8628713726478395 1.006585831497806
C 0.29528091752794744 -0.37145296094179336 0.6543232755977455
C 1.423660472952629 -0.8272043209958789 1.074198202076695
C 2.6235028209890228 -1.080441964165911 1.5006481707619999
C 3.744051387036547 -0.6597726098772243 0.7271783741118146
C -0.5607777073047325 -1.021624662975625 -0.27567123301506763
C -0.005090572434755994 -1.3308176719235547 -1.6309258483534281
C -1.8090443280690067 -0.20556189628842675 -0.4008776945341766
H -3.884713241533725 1.2825965399242758 -0.6841595377511297
H -4.277476791982883 2.934523023150571 0.04658490318008458
H -2.1933016870473336 2.9768904962587333 1.2101561194491057
H 0.01735111862982458 1.669715371320857 1.6703287364998534
H 2.7270986303913567 -1.589392315673314 2.4091526060775807
H 3.995128444006429 0.43047069784708253 0.7808433230440994
H 3.7380428671572576 -0.9279564798927198 -0.3512230141639275
H 4.675805755967405 -1.1580034649079893 1.123873864037938
H -0.8841822681845394 -2.016079755169739 0.15893282451264162
H 1.0194313181746426 -1.746567536918991 -1.6040418129303164
H -0.6423606840484819 -2.1133058753132614 -2.104196158300908
H -0.09915752087283203 -0.43434284709399684 -2.2758676303167547
H -1.9494428440611495 0.09989234705394334 -1.4645677474000203
