19

C 4.1073567221664495 0.43979676960758096 -0.8169431243688752
C 3.0906761859804943 0.45055169647416654 0.009040411224613474
C 1.9052589306229866 -0.31906994516615733 -0.2960375197605578
C 0.8974137158020601 -0.28883218191793947 0.5545063175226846
C -0.3672533035011033 -1.035384407656751 0.349861705973745
C -1.4925301294838125 -0.13730406626928746 0.7203649892548916
C -2.423850348016273 0.1995251052917592 -0.14287322788444426
C -3.5378470184606616 1.0934852390494185 0.23797228850825566
H 4.125870136993264 -0.12423022622585875 -1.7461451037123648
H 5.00171078991589 1.0088152122445848 -0.6056279264621043
H 3.1437866446612865 1.0322728223534428 0.9099521912958981
H 1.8754690207578597 -0.9025100324083866 -1.218292709811317
H -0.3601885126243103 -1.8813607345164582 1.069625311392339
H -0.48835625162121005 -1.4097865675782864 -0.6685471623051388
H -1.5353553360479468 0.24314844789832094 1.7311219760811067
H -2.388712763628728 -0.17727920712385561 -1.1582445683606128
H -3.955362977178657 0.7521789237390303 1.2157449339104645
H -3.228994957500815 2.141902448103474 0.3473349133252408
H -4.369090548836783 1.0672389302942638 -0.4928136958239593
