37

C 6.874013885634997 1.7463391530365668 -0.6084527187595475
C 5.883199359285399 1.3186797673840562 0.1478011890277831
C 5.397956291276087 -0.07682818545176115 0.08862579601207812
C 3.945218915060781 -0.07903263385476002 -0.3081757838029013
C 3.3420190197329975 -1.396615900292428 -0.4053855484058253
C 2.2070253987851562 -1.5627601735208274 0.23544846554303175
C 1.0183494305857743 -1.5946620426390825 0.8165952876485216
C -0.08265459110435996 -1.2131545860819817 0.013126235751637598
C -0.8190162262557978 -0.2510041741876426 0.5111633160622465
C -1.6419230079569793 0.6316835762649359 1.0596057703146546
C -2.6798488432526355 0.08121893174693384 1.8566093999637923
C -3.9218005610301008 0.047786840612315785 1.4144379458662704
C -4.300351726097696 0.5773970133846136 0.07456805324254473
C -5.717383175891099 1.1349882700734155 0.11818784792568761
C -6.051283450085977 1.6530274275106724 -1.2442116965442924
C -0.5144886019468228 -1.7166299084660397 -1.2530678296743443
C 0.19427293381751784 -2.695462165416563 -1.8093692988927488
H 7.3447817849702375 1.0421256883563426 -1.296400300717962
H 7.2235122508955545 2.763613490932385 -0.5614313288742253
H 5.408428533122144 2.0001238120243463 0.8311959399534139
H 5.597326674114797 -0.6123180803100902 1.0184105595951696
H 5.96660702899024 -0.604725906507417 -0.714570812901243
H 3.6958665809266678 0.6402576863707374 -1.0809489286198828
H 3.6642802209472354 -2.2662380206555928 -0.9154147167230989
H 1.0746358297712206 -1.9084157794630108 1.8221358496427926
H -1.379683119563243 1.6132907155928258 0.8046206350320948
H -2.466989331654867 -0.315770657462307 2.831466656156585
H -4.701212102309593 -0.36478001897583384 2.0111769334590757
H -3.6056766132800773 1.3567643893796038 -0.2766381397440421
H -6.412466576480274 0.3525145881388525 0.4598971734934305
H -5.7882315142079905 1.9738206528226894 0.846702346463294
H -7.046993142353127 2.1434990142965895 -1.2270741435529855
H -6.078815699888794 0.7914685785072477 -1.960003948839086
H -5.254626007210654 2.362103537273263 -1.5539856798325054
H -1.3627106786725947 -1.3539371645630207 -1.7676885737563954
H 1.0712213625679936 -3.1110252256648434 -1.3366687807122675
H -0.08256053124217497 -3.107342510194965 -2.7511446144583243
