46

C -3.855142240189388 5.02242138215713 1.9055708326222554
C -4.676418108362837 4.274154824539926 1.2142837088442948
C -4.2107452855805505 3.0726055431577928 0.5331331620709763
C -2.911809609253579 2.625393241370056 0.551480963134227
C -2.48403841075603 1.4805521873337635 -0.10105546057588724
C -3.4023677738632654 0.7384510291305583 -0.8125802049126394
C -3.009273816748122 -0.4304378173563265 -1.490305314606142
C -3.979146623366568 -1.1091402411270357 -2.17348539678643
C -5.298796549220831 -0.6998926172398436 -2.2220151965470056
C -5.66590326952351 0.4326475858499955 -1.5618700849974105
C -4.697523943463994 1.1450587653997963 -0.8567970118225658
C -5.108008895500847 2.3005628758955914 -0.193105694546913
C -1.6894496452558754 -0.8610027458005846 -1.4557929065396615
C -1.0422175752221634 -1.9609207362138474 -2.0263577331154043
C 0.2898520879030587 -1.9807625474626485 -1.7145344358663333
C 0.5021368414557785 -0.8264940564342057 -0.8985703462154191
C 1.6516327070385617 -0.5043491291437285 -0.4008744764778611
C 2.7868174186753136 -0.23219244704760794 0.1868283992627882
C 2.976788135199483 -0.8194984548886327 1.465555587853675
C 4.169556282513612 -1.2577420026880402 1.815885282563942
C 5.350590933949326 -1.1628897866456485 0.9129450411691904
C 5.840202510505746 -2.4879972013402942 0.5083838522650619
C 7.10725700277952 -2.7951509120917475 0.6663778033772978
C 8.063549777104033 -1.8282003744190534 1.2483801062649778
C -0.6934185012330077 -0.0813284064604526 -0.6971897101478071
C -1.0976266160183519 1.0393386296149048 -0.056311207582461824
H -2.803740594152545 4.851107330909497 2.044944516292861
H -4.235615389387429 5.917242655723531 2.4077912818901397
H -5.71050844631651 4.5519258533320555 1.1490531464907363
H -2.1883879141740388 3.2103622275457586 1.1113806382211198
H -3.7585307546172055 -2.033186377196936 -2.7307253151014663
H -6.042431638247898 -1.2767471097147658 -2.783702551230009
H -6.693734871765641 0.7776763940720777 -1.58182347148186
H -6.138131211162642 2.613103124565304 -0.23550367431757166
H -1.5009494488760753 -2.7479775504545954 -2.6589312041335185
H 0.9620258976035876 -2.751294886081852 -2.060898850492452
H 3.402913829094605 0.3972403631592538 -0.3929456465342053
H 2.15700226949225 -0.9096818652663068 2.15237524595744
H 4.3484737388041745 -1.7103388156704384 2.782564122373425
H 6.124911228673475 -0.49598171637809757 1.320520744671302
H 5.147740613663376 -3.1878047823125706 0.08737816916114012
H 7.458659348205169 -3.774074813058157 0.365082493326365
H 7.785292258393341 -1.6177556388202656 2.2982307430010667
H 8.012671906663584 -0.8959509787301635 0.6389244805536336
H 9.105571516142504 -2.221349040052363 1.250473296813467
H -0.3497291716712386 1.590788360920144 0.48783227579287525
