15

C 2.8073446309052623 -0.10540325402997669 -0.7116464567923746
C 1.7697794394426358 0.5115798339861619 -0.18362754150655566
C 0.821222733489464 -0.2157798006969896 0.6962155250416929
C -0.538595984435762 -0.19607634615846417 0.147089176413886
C -1.542215063588997 0.1466296761335474 0.9352688145656327
C -2.9274970014579145 0.1760339613314523 0.40978032020402966
H 3.5101684893151996 0.40687356915069756 -1.355363798050548
H 3.0022117870143035 -1.1531721737693803 -0.5242738099045317
H 1.5844390474258048 1.5607308989937494 -0.37803445752383535
H 0.8508280223486371 0.18589156697922554 1.7386901871295881
H 1.1332265192315347 -1.2968715834555395 0.7569252617031781
H -0.7127656795475515 -0.45652895047813147 -0.8796867655977395
H -3.585636759484404 0.8457562436396587 1.0036054376043264
H -3.3091243052506494 -0.8814139401600278 0.45070078604416963
H -2.8633858754076598 0.4717502985340047 -0.656805871751173
