23

C 4.475754576292233 -0.18585080915499871 0.14664253240621633
C 3.444458996427805 0.5656836229875376 -0.18392629313213524
C 2.0933851324393884 0.043534053593728125 -0.06702272318394534
C 1.0318488186752004 0.7578965156867696 -0.3856618458490231
C -0.32494541478740985 0.2947285586049363 -0.2905890239054277
C -0.6307370077993616 -0.9175476359965603 0.13522209331476462
C -2.0618499191534596 -1.2746824620040047 0.1873247681700604
C -2.936864812529967 -0.19565629281788186 0.7562517958047956
C -2.595585095556165 1.1741461982869847 0.2480408027582108
C -1.4293800933020104 1.2084826007500442 -0.6850013880213627
H 4.357428294535019 -1.208947958569408 0.5136332982539428
H 5.501330503436077 0.15148105804681908 0.07944567289843618
H 3.6136807731678653 1.5697518068778564 -0.5412125865242485
H 1.9950667166792935 -0.9680885037006671 0.2968487897310418
H 1.2381286572658758 1.7784545135806198 -0.7469456770878973
H 0.1448681452745382 -1.6397676865819864 0.44127911366832717
H -2.4465658493430884 -1.7520421118271499 -0.7121068502681015
H -3.990997553811742 -0.48162394779006523 0.5666306438364589
H -2.8014244155967702 -0.2189391601891202 1.857184459511636
H -3.4836698430470157 1.5389881604839137 -0.3086949861920718
H -2.4591692553260893 1.875687439971726 1.0951602319947789
H -1.0181460009877974 2.2374142931467627 -0.6627417454966376
H -1.7166153529526456 1.0145042052106885 -1.7397610826878664
