33

C -6.237466736749885 -0.6874115140453196 1.1527595204222194
C -5.226052526628435 -0.49078812037063385 0.34080131232323496
C -4.947487847648484 -1.458260447985269 -0.6896687265409394
C -3.9307299655244363 -1.2051796989456915 -1.464087050688937
C -2.8338137823174003 -0.9251399727377162 -2.1565060156999887
C -1.6197370481271047 -1.3413280230181903 -1.5552981446083394
C -0.7020331461675401 -0.3802942600260785 -1.196767725702458
C -1.104198405476005 0.9390446333376201 -1.4840159627333862
C -0.630141076588701 2.135024882719512 -1.3544639783831272
C 0.4700581064751047 -0.8896474528147195 -0.5986406185090618
C 1.5811023158826212 -0.44313256249173966 -0.10928524511754746
C 2.00905699321066 0.886150865308333 -0.018632183495968055
C 3.1244038680114703 1.3264121251323948 0.4776849874088066
C 4.146807919607743 0.47616230905804796 1.0402772978481525
C 5.251787192445075 1.0584303518568405 1.518671048191722
C 6.311896921488267 0.19777732288610084 2.100350283185571
H -6.846011529302661 -1.5614660353526308 1.0443788156848455
H -6.455726748840284 0.020947979734097653 1.9228162972110452
H -4.623490026721342 0.4163652019492706 0.4821159331465034
H -5.465223283848671 -2.3484939229134385 -0.8906672754837408
H -3.0540937398542227 -0.43068407315024343 -3.057969662089119
H -1.34138794236337 -2.3622222094386065 -1.3478688349298926
H -2.1531040918732622 0.9806572377352862 -1.9697413366636591
H 0.2972780297940264 2.478113945423682 -0.9499886796436775
H -1.3129950735063094 2.95754411521809 -1.733048063432812
H 0.4112978289155547 -2.0652768124487793 -0.5278548686207506
H 2.3256507122567056 -1.195558291327643 0.30817271906997806
H 3.3444822393514886 2.4165093904080455 0.48868710784498404
H 4.019274540563913 -0.590054961147034 1.0713149304668854
H 5.390587582055343 2.127773035084486 1.492051760351967
H 6.075281504812068 -0.8671636471536449 2.0429278391690877
H 6.457417680827216 0.45745991473837944 3.1815767305192515
H 7.267309535856143 0.367728694968874 1.5319624466213924
