17

C 3.155705700072376 -0.7123698092276857 0.8447419898944075
C 2.166983609559318 0.12998076676111245 0.6004452039370872
C 1.4657376086444331 -0.032083159167663876 -0.6519320601536891
C 0.47663630885784775 0.8181953748833997 -0.8854880131817061
C -0.6895430197317096 1.4100175202305918 -0.9760384834823447
C -1.8579883481859147 0.8435747996722519 -0.2877588449024359
C -1.7780981632056005 -0.337987864059126 0.5865142687570893
C -2.410184212874378 -0.47872053698302636 -0.8056698678310248
H 3.4579146039014126 -1.498550470654094 0.1681967795328918
H 3.707848460785169 -0.6345897476128634 1.7600771764314835
H 1.9366901307309534 0.8795937910739519 1.3298510030698591
H 1.6532207201416997 -0.7593899766883873 -1.40615426549369
H -2.6629895419373053 1.5861635233204392 -0.07743012763553557
H -2.4774459630734182 -0.38891693417922363 1.4646098418495226
H -0.8307864538442657 -0.8847283779257141 0.7523582635717688
H -1.8095516481927676 -1.0138618543049038 -1.5857201837864552
H -3.504149791647834 -0.6291680259360499 -0.8306026805771856
