24

C 4.534852152211427 1.2653899451204231 0.3319666417280887
C 3.31125286681476 0.8025570832220614 0.46941067636787875
C 2.951324736576889 -0.5398356397020886 0.0364466078174264
C 1.7214842948956548 -0.9525101412577287 0.19506275603201825
C 0.710703115381865 -0.0755448478136068 0.8025779543890432
C -0.6290525458799914 -0.6948529996465711 0.6296681312564384
C -0.9288831821845731 -1.9852977068129594 0.6625697499421913
C -2.3576518195364886 -2.172370989496522 0.4487452905431203
C -2.9592922835199773 -1.0132288248273391 0.28175485535735606
C -1.904124058368773 -0.010581267790250783 0.3859326882041847
C -1.9924737229812854 1.3052020746296975 0.2902045806428296
C -3.2553316920865676 2.014226436930361 0.04684779351091505
H 5.27401454478898 0.6182965315530182 -0.1147405011235809
H 4.829443404723607 2.2372395046754696 0.6365427881807519
H 2.5816576068641743 1.4661149279011052 0.9203183268821326
H 3.7045508927362496 -1.1682970538563682 -0.40648625173492237
H 1.4524948958124535 -1.9384405138592917 -0.12107853965923843
H 0.7471798534931956 0.8961240841167736 0.24105782821551971
H -0.18201419842785393 -2.776794757831037 0.8296180527519998
H -2.9107747031476334 -3.1178886882039945 0.420237708239479
H -4.022841917235397 -0.808060924203836 0.10117787319444246
H -3.945589592113104 1.3928184387548717 -0.5569438859769296
H -3.0373614706874092 2.961328917083557 -0.48392628724859005
H -3.6935671781304107 2.294406411313992 1.0334229607002212
