24

C 5.791560660343301 0.12247291484264972 -0.062393286645051706
C 4.516475745015373 0.3555174550024629 0.1461023944906621
C 3.509934837740329 -0.27079528381884427 -0.690149079337518
C 2.2376746217574675 -0.07295038869431668 -0.5249537628118557
C 1.0627847840513667 0.4737328823435287 -0.5745455715293637
C -0.14139945813989155 0.9479372709321889 -0.6519589743038273
C -1.294285740393093 0.036608253057661605 -0.5805007430421588
C -1.7329292847140119 -0.03905648495687217 0.8884576890496062
C -2.9042265689302806 -0.9669894703495627 0.9498675540750158
C -4.06447494103806 -0.5594776276539439 0.1655640366779479
C -4.1690732301203735 0.5317477889490211 -0.5544981038102664
H 6.105130325538803 -0.5257771540495204 -0.8435800271850585
H 6.536374359400971 0.590292751188031 0.5617985316085343
H 4.208478565906825 1.015819998706375 0.9425276407283475
H 3.8006850323661827 -0.9335405977825283 -1.4906599824826385
H -0.3078302804040268 2.0079429320714612 -0.768690622823259
H -1.0570476648020033 -0.9980204985543328 -0.9243383922138629
H -0.8713249130797214 -0.41802877211561457 1.4766160357542004
H -1.9376243848069006 0.9717795496018581 1.231496119025515
H -3.2303078050620595 -1.0353515415494756 2.029550298770251
H -2.63970152607504 -2.005471829965222 0.6725372393484064
H -4.927982829703175 -1.250103395485003 0.19387824299394774
H -3.402202420862602 1.2727848486186744 -0.6580442002372191
H -5.088687883989585 0.7489263996613251 -1.1112570642746036
