46

C 2.705868007771302 -4.4945165997090415 -4.491047051230572
C 1.9791260708625988 -3.9750118226369806 -3.5648706765945426
C 2.4865403039984875 -2.9097733569551143 -2.6686578825491187
C 1.7159277310635344 -2.4042927030135175 -1.7287162883029312
C 0.39414391604129817 -2.9103692502076153 -1.6033590339050772
C -0.5525861747081792 -2.014083852893112 -1.5558884057900046
C -1.5619507027667425 -1.1834031683718758 -1.4948133351388007
C -1.6802160516919913 -0.39073763457491434 -0.3021604218330689
C -0.5439526218517752 0.5829326403841562 -0.13031805150412848
C -0.41992384571229074 1.511271221706354 -1.321908054662249
C 0.7929158182970089 2.3641370784762867 -1.2894102235872598
C 1.1742513663223673 3.2923910883502168 -0.3590603442088875
C 2.0782460659239503 3.1298977995834827 -1.4561365938726536
C 0.3721076285829473 3.5895165614529674 0.8302497692579448
C 0.5280528573562862 4.955392983524983 1.377385268984647
C -0.46034206531674293 2.7365003198395756 1.4706271820447288
C -0.6773146367649386 1.3980751118191144 1.0591520409170736
C -1.1254643095515704 0.6364736068262842 2.0268501184168737
C -1.6255628714498664 0.001136588967978934 3.08093369616448
C -3.0537718232775624 -0.029071651967468165 3.112872728724529
C -0.5690998454259476 -0.46431640600928226 3.915409555675531
C -0.7587886344620178 -1.9075987267796515 4.308131171290181
H 2.0171131836734895 -5.309892019948422 -5.037067243857247
H 3.630280870433415 -4.466563200985231 -4.915974603231045
H 0.9723041650434244 -4.275244076907676 -3.3765841376008656
H 3.4973655293996257 -2.5992331176687906 -2.850543134307277
H 2.099878235601241 -1.6440081820685803 -1.0960216426455973
H 0.046438226377097935 -3.913530479085648 -1.5457714901796953
H -2.1874346972439174 -1.207956977589725 -2.365959934080884
H -2.676201957398573 0.1076462156193368 -0.24583058687154985
H 0.3830283206468238 -0.009649242301893372 -0.078228994947998
H -0.40378276211868575 0.9642674203445568 -2.274767992165725
H -1.2855273984253606 2.215639925279041 -1.2613130921500528
H 2.95404405385383 2.4880162629659393 -1.455084530307551
H 2.0549338466862364 3.9158913500906296 -2.257874561262757
H 0.34694460834879526 4.953195232836474 2.4686115969322273
H 1.5668214074291353 5.262694467396366 1.2254079090185694
H -0.10983914965272663 5.693783738323737 0.845371761995215
H -0.9657543451605926 3.181028796803191 2.338747860085524
H -3.4099013449820927 -0.9574007776622292 3.6042279555842422
H -3.5186673244460263 -0.07895184917975234 2.0799822495477676
H -3.5614279297755034 0.8004126334434547 3.596640513027412
H -0.35268362173417167 0.16961700935268795 4.805276535421001
H -0.5234788562655129 -2.0006958044682848 5.394162481356934
H -0.01842702372598866 -2.4921601363513988 3.6909249574342775
H -1.7542322204680985 -2.3114570160798347 4.06497887371474
