15

C 2.4570395407603556 -0.2492125479836092 -0.3758570820343287
C 1.6474312680085479 0.617524281355262 0.17585270283672236
C 0.19326446616348764 0.3437070366432064 0.161908564045086
C -0.7533830923350279 1.1058780675406874 0.6690623815939036
C -2.059211523059312 0.5138943612482427 0.46656271230144397
C -1.903814642681427 -0.6221065861939747 -0.17160142671524736
C -0.47409341809439637 -0.8334291145629213 -0.4216940887101764
H 2.070481878426014 -1.157595714120169 -0.8382521860998722
H 3.531646951919522 -0.1239685530270868 -0.4078664119771244
H 2.0129371987121627 1.5100385291767062 0.6315288319002661
H -0.5419179816335541 2.0543866536699276 1.1698841445652854
H -3.0401977661909454 0.8838961477279261 0.7616747492230069
H -2.700835876225279 -1.3283363034821156 -0.48449631280546673
H -0.24206891300297273 -0.9636544341310891 -1.5003419164840563
H -0.19727809076721362 -1.7510218238610074 0.16363533836060115
