26

C 5.49356608462562 0.5573556352718161 0.199190479463819
C 4.286127208796549 0.8351226177647177 -0.25221741474426257
C 3.10985699584058 0.11373952159018169 0.2053408483890019
C 1.9131376086394567 0.38532748297788544 -0.23868844047925267
C 0.687694786249957 -0.32754146001720147 0.20299378138783167
C -0.3420309310343951 -0.10458257593297636 -0.9135844285627968
C -1.611937903275154 -0.74263238441222 -0.6383576818764268
C -1.930950335511579 -2.1360072535156713 -0.4197884876725515
C -2.644566623376928 0.06912235863930846 -0.5727237870056163
C -3.644333831885243 0.9135628319126801 -0.36158145762459476
C -3.8034599098813886 1.371856458114976 0.9989280195139493
H 5.650547706395125 -0.22018908331971437 0.9285485674050428
H 6.347486285283407 1.1065394965210194 -0.15603523624415963
H 4.1500232577451435 1.617389214993273 -0.9823861453868594
H 3.2288360077061165 -0.6689529666103298 0.9330833907466776
H 0.25663900839989334 0.1697441153189286 1.1113184537612317
H 0.8477053022840646 -1.3908107112253827 0.4091542767593468
H -0.39787453369687215 0.9935595781881219 -1.037754171811178
H 0.07157556943660646 -0.493425637744424 -1.8736533646114117
H -2.251930502779453 -2.6196835161402237 -1.385264014231678
H -1.0324291182251373 -2.693499366263754 -0.09885999259771126
H -2.718406647772779 -2.335030231326536 0.31832982311969943
H -4.163982994455523 1.1085403382323342 -1.2511461713420566
H -3.481663633762275 0.6201202166875268 1.7305372299402466
H -3.152992346838588 2.2693226867530134 1.1669132396192385
H -4.866636508907107 1.6010526335426694 1.2103429106727166
