19

C 4.395473271080777 -0.22232000253228443 -0.2539150099247658
C 3.076969838859112 -0.3831932237510126 -0.28045579795286296
C 2.2103763163862484 0.5579666874935237 -0.9578113132326604
C 0.9097265362249237 0.3870296141580656 -0.9762800462604306
C 0.27367042516010265 -0.7572069902692774 -0.3167368218363366
C -0.8838454577370229 -0.6419354292372531 0.28109551104234454
C -2.0318815315603427 -0.46600946878130045 0.8525139551355236
C -3.199983501561053 -0.13222526889369454 1.331890232306288
C -4.206504253181153 0.5888621466454007 0.5454007519418007
H 5.062039402230523 -0.910283448855769 0.24442919544666178
H 4.8774885508779535 0.6243314448131405 -0.740838282447867
H 2.692772496900817 -1.2629546982442392 0.2368196151226901
H 2.6404872192742075 1.4046580778644115 -1.4497772380907474
H 0.2569004782473588 1.0860022185699005 -1.4802163625936755
H 0.7869204322592608 -1.7144352640206595 -0.3334246731732071
H -3.424744334205459 -0.4043791143106513 2.354966717681089
H -4.765111848926118 1.3511168643475027 1.152193842481131
H -3.7142493152573204 1.1688508187088356 -0.2688836824702288
H -4.95650472507248 -0.052889628200921544 0.05902940682522378
