18

C -3.0629006066425535 0.1783743692491558 -0.5138652796793618
C -2.1191854339034824 -0.6490783337526148 -0.14790379407780868
C -0.7467954546117407 -0.18838346976252135 -0.057886965363529275
C -0.38522540277933165 1.2326867559511154 -0.38769312577397913
C 0.18901094545326355 -1.0213897040144588 0.3109608707941627
C 1.5836781768251773 -0.6635318758613472 0.43266282902323455
C 2.87045209779426 -1.0750469758627417 0.7431638485766456
C 2.6897305660146595 0.3108490869629782 0.34493892872719706
H -4.103318926134032 -0.1456647303283663 -0.5890507702630315
H -2.8145745552294814 1.197595050015381 -0.7437893490030452
H -2.3421146415224907 -1.6736029625559408 0.089815980953555
H 0.7013357468893482 1.303363601020358 -0.585303261048753
H -0.9189509405942199 1.495675052113808 -1.3503675086898153
H -0.7026147193560057 1.9260336694879114 0.4115927219313203
H -0.12345073257098085 -2.053260873584303 0.5384075228948749
H 3.5091522177015873 -1.8867711706357788 1.0594437564455104
H 3.0789541478196845 0.5953319583821567 -0.6668588618555782
H 2.6968175148461495 1.1168205531765143 1.1117324564054134
