25

C -4.792902548861478 1.1550195441060127 1.0666967634613527
C -3.805734824748599 0.38760133231863253 0.6463507853990234
C -3.0793127873694925 0.690890215097639 -0.578399156148308
C -2.095746343575231 -0.07601039232625664 -0.994789487873764
C -1.7469810746932104 -1.2501340001702788 -0.19094733789729149
C -0.7538852067812823 -2.1304473347308894 -0.7577623224355581
C 0.3839315489955028 -1.6129773229778774 -1.1420434991134072
C 1.4998705504602956 -0.984071616579748 -1.3977713816615038
C 2.448017497619702 -0.8965251969798832 -0.32507200321016133
C 3.081385787067627 0.25966146728167316 -0.15664162224487047
C 4.059897373228987 0.41490203745447846 0.9180111128829432
C 4.711922360294769 1.5462304139761398 1.1208010199065936
H -5.086175320341541 2.033136769818812 0.5059257693518295
H -5.321867084349221 0.9249285392530862 1.9682849451197209
H -3.5512984119794044 -0.49138960882774846 1.2564040691011278
H -3.361661023311466 1.5623935411900038 -1.1458266371098238
H -1.582371250454318 0.1903787817184266 -1.9152303169546776
H -1.6149774978028557 -1.012880457008139 0.8822931345116272
H -0.7995978541077056 -3.1807770000787814 -0.9193605802991925
H 1.5806651308059347 -0.6042521385880547 -2.3750809443901235
H 2.6787282726293595 -1.7073834418605296 0.3514725290539936
H 2.9083032883976596 1.1192980923018392 -0.7897119446269291
H 4.276714081749643 -0.408105310221976 1.5842902871167843
H 4.532291681208098 2.4084428436878533 0.47872399917221903
H 5.430783655918381 1.6620702421456033 1.9093828188883104
