20

C 1.5016121880990863 -1.3807356900692964 -2.9990852891395137
C 1.5756718099393512 -1.1059115338945233 -1.6992380698204785
C 0.477838957657913 -0.43216352389606355 -1.0345687822242793
C 0.5744826934184312 -0.17234354301447527 0.24696316265324345
C -0.4696052888454309 0.5070503605289559 1.0413042642355261
C -1.74051396783979 0.8949038260104748 0.3052307284315713
C -0.6434256135211194 -0.09134093585315498 2.441321958406279
C -0.15670713047178705 1.297828023630969 2.238048491050862
H 2.3037842291601205 -1.875902449603262 -3.4967631546968843
H 0.6379447491624098 -1.1153687947874933 -3.587434719465098
H 2.4665614622370335 -1.3953887772411673 -1.1585228020871272
H -0.40908372393867254 -0.14262926087863873 -1.5675627065047086
H 1.4777454821879936 -0.47050504319312947 0.7756409791048343
H -2.0309709642491893 0.021157236520002537 -0.31764752061796103
H -2.507044560329982 1.1586450161746695 1.059885369556398
H -1.601106141505903 1.7444596697201529 -0.3744653568210639
H -1.6766820216018785 -0.30406568664402545 2.7724458623976678
H 0.10431350816675479 -0.8117105951887008 2.804407188824659
H -0.8064086473836707 2.1583935733597475 2.506508902977455
H 0.9215929796611744 1.5156281283209145 2.4914173166711646
