25

C 3.529383388389505 -0.6953399348952908 -0.990268231651389
C 3.1132280407323276 0.5248238582897113 -0.7494608993043144
C 1.9311391447044994 0.8286751161177169 0.07102459281966321
C 1.1958199502717197 -0.3993960721797019 0.46012198982450886
C 0.6948853566571545 -1.1239542069014428 -0.7528336000943225
C 0.1791790350242012 -0.09056939343124887 1.448080603286857
C -0.904768228697 0.5232810237077397 0.9967948978868424
C -1.9572989666958704 1.0402510207067617 0.43806579271515
C -2.9621121298273048 0.09190409385560556 -0.046821695528868196
C -4.313088747410629 0.26769940273237314 0.5555462270798097
H 4.435532437115649 -0.7913007106704362 -1.626896804309923
H 3.1051281178759154 -1.6101094085594099 -0.6356618620841535
H 3.6622376714617872 1.3922631778189432 -1.1739862011192705
H 1.252034363547553 1.5513805699566583 -0.4400674784092963
H 2.292315154542493 1.3136159453542913 1.020722843608179
H 1.9460848534624324 -1.0842373650328496 0.9571426429531497
H 1.1711546222425577 -0.7802710743007986 -1.6916829274259064
H 0.8300603579608897 -2.2054148482513045 -0.670544943090148
H -0.3936299939887596 -0.9369015109695075 -0.9156690490432557
H 0.14115510608581944 -0.26984725472855253 2.4867057622348416
H -1.9564796180251285 2.1044957798221025 0.4008453429271636
H -2.9569323911478316 -0.009586646754060327 -1.1469217855554732
H -4.374036125055482 -0.12121647326377676 1.5740216372143938
H -5.043258666102466 -0.28818407544871055 -0.08584108220618722
H -4.617732733124279 1.3303750746063168 0.5175842272715425
