29

C 4.375423989753025 -0.59613264339065 -0.3987791265373227
C 3.346308521763389 -1.3786262289476623 -0.2201921663002925
C 1.976246975601021 -0.916137679196582 -0.1848898404971818
C 0.9687312016931351 -1.8153173445326019 0.007866868985330965
C -0.3603256328378067 -1.465820565615681 0.055462322041103185
C -1.5503341413792266 -2.1685887096790832 0.23487226003736403
C -2.602960039424993 -1.2951983036817707 0.19235510655792784
C -4.026917061793096 -1.6399637850197444 0.34025451685041086
C -2.021025669026739 0.0496357643422735 -0.030111546957664676
C -0.6775795599436585 -0.04502982135236957 -0.11312889531344499
C 0.410328976060904 0.9059582497065599 -0.3185981385345969
C 0.06742542757352787 2.3336908816850803 -0.48636322508344404
C 0.810798510829584 3.260000081907765 0.4432064182331737
C -0.6597954809191793 3.0473733991031127 0.6204252761220618
C 1.6906261819836832 0.4938797811974428 -0.35431422012251396
H 4.248364443999694 0.45653084279208495 -0.5314030106459833
H 5.387995136231654 -0.9721024307163817 -0.42028112311042276
H 3.5421504356843303 -2.448592907236348 -0.09012657867347908
H 1.3157218372364643 -2.8530894722854767 0.12283775733069072
H -1.7603489683009594 -3.2263345654856077 0.39220414786692
H -4.13888803871541 -2.521551296206427 1.0345769264151694
H -4.4258380740969026 -1.8870529409539105 -0.6649649311924566
H -4.585654049216198 -0.7648879233856007 0.7186421718906857
H -2.555678626749671 0.9846284812503827 -0.11785096999440162
H -0.11460034645111879 2.680096369441141 -1.5228601039370733
H 1.2055545308068474 4.175904438765026 -0.030981247673176025
H -1.3675520139538129 3.8317339461161586 0.2913658340304202
H -0.9431958341839727 2.522173929024885 1.5409521271404405
H 2.4450173677759626 1.2528204523534945 -0.5101766089282247
