19

C -3.786818778222438 -0.9439356686717632 0.30453827114482424
C -2.7167784036500953 -0.1847949037075348 0.4140176646498546
C -1.4128151960705169 -0.7636901586900223 0.6350715100637535
C -0.3354526397274759 0.0034328377201259886 0.7455523352005001
C 1.0083764662021086 -0.5262850151991323 0.9694860190683084
C 2.0656766700891875 0.5080508816222217 0.5882082333144469
C 1.8616013218635605 0.8105323783892036 -0.8528778628211499
C 2.85643187785204 0.5706949534699503 -1.6950125377644738
H -3.7098080716683133 -2.025323131795517 0.37868316371993255
H -4.7676714785982774 -0.5256800534583952 0.1391854713876715
H -2.8505506803305685 0.8783815011383301 0.33265001022823093
H -1.2562505923121834 -1.8354530732072207 0.7200312210854097
H -0.4465244325587885 1.0958898846125213 0.6664544031927581
H 1.154670521437304 -0.8705321299121552 2.0248846401436706
H 3.075174844044103 0.17075460639259354 0.8203433793893444
H 1.8741724600918688 1.4606504004161123 1.1514362098550668
H 0.9010690904812253 1.2142338338788923 -1.1353737106556299
H 3.7997931580840594 0.1641021917920507 -1.3521017766223795
H 2.6857038629317502 0.798970665164215 -2.7427959266028554
