21

C -3.740248270346572 0.6991381862482352 0.09687044889617424
C -2.485720287987414 0.985893837121636 0.42337558560310395
C -1.3760575090639935 0.12419939936815182 0.0750822770241095
C -1.6134041522953146 -1.1168177839134035 -0.6645952596638455
C -0.16322252834440928 0.4677223168374193 0.42860720720990064
C 1.062088776335074 -0.29270731003151435 0.15316934139448984
C 2.2468024808803824 0.6028829779669781 0.5353472299675661
C 3.555591430112217 -0.07592770158756065 0.29416474004922766
H -3.996359823990853 -0.18870979695021384 -0.44350327193276307
H -4.503877790427967 1.398418552588128 0.3972940411283262
H -2.2581227742605963 1.8995977504799866 0.9748125468158889
H -1.8198576986544064 -0.949473083397476 -1.7463274303379852
H -2.502731384736704 -1.6877910047030427 -0.28145190860867375
H -0.7700879699927223 -1.8368784302828964 -0.6269428588232419
H 1.077782973925052 -1.1673055957912883 0.8520408939693479
H 1.1668736646974798 -0.6053285749871256 -0.9035132272686337
H 2.162255795836388 0.8680112473789058 1.6070905624315783
H 2.1839206117824665 1.5486154468254907 -0.047411959466927354
H 3.952079761318259 0.06592334974529865 -0.7260675424459635
H 3.5137046197910453 -1.1524155674675092 0.5456783066667092
H 4.308590075422697 0.4129517845517407 0.9778792929121412
