16

C 2.157251690485458 -0.0413710770135571 -0.2874417109798846
C 1.194559591301976 0.40015650962853433 0.4957118953590681
C -0.23155689213805486 0.1543725017847876 0.1255905188314008
C -1.0563331587780118 1.3907897829753355 -0.16007398480796067
C -0.49636609301622037 -1.1012164686213795 -0.6340507933605698
C -0.9289802199953733 -0.962337587579855 0.7954829051893638
H 3.1928579768654024 0.11889578708237049 -0.049654734926297496
H 1.9062152593494053 -0.5736516719628802 -1.1842847812457635
H 1.4239169057414363 0.9524656128895637 1.4272178887645326
H -2.150116326800966 1.176758896823973 -0.01078796706391893
H -0.9630444777681977 1.6705333917918777 -1.2344993944026823
H -0.6922037219183867 2.1865392736303773 0.5218921235234122
H 0.32106831539429637 -1.815678949328789 -0.8516967611243583
H -1.2785536808278561 -1.0457376351868177 -1.437287755915921
H -0.372956882167947 -1.5563014522391023 1.5447571990919093
H -2.025758285727019 -0.9542169146743747 0.939125353067682
