19

C 3.121735373136369 -0.08608423892333925 0.7663095708852252
C 2.2725014538582586 -0.0743006164796243 -0.25190630914193307
C 0.890724466506091 0.3449596961434614 -0.027787783123085247
C -0.11487711111621894 -0.7496530309976052 -0.3754623698982092
C -1.4537407502506228 -0.1940878961445313 -0.10373406243631644
C -2.2289044325193754 -0.7825414796551659 0.773375624562553
C -1.9870429499243756 1.0228735697489708 -0.7829756542681894
H 4.165428740794972 -0.39072629137831344 0.6536139530381073
H 2.8300606289319106 0.20551910991619887 1.7684614094249766
H 2.6342880823699213 -0.3786331819740253 -1.2252972106304887
H 0.6429027198120165 1.2666829567208084 -0.6097991353560602
H 0.7341745719996824 0.5688280040182971 1.0431533820559287
H 0.07651395127311547 -1.5666323962211794 0.3436627291431135
H 0.00936359556116329 -1.0935579564698323 -1.422432426586795
H -3.209007222953669 -0.41906703076534685 1.006477013870243
H -1.8928074974875995 -1.6597656907315073 1.2886045824761043
H -1.437217817060232 1.279176157594262 -1.6979503369157312
H -3.061740137777279 0.7961764498868191 -1.0287842871154351
H -1.9923556651598455 1.910833865711789 -0.11752868998666574
