35

C -5.65244321331791 0.9960829525293848 0.7963115133602087
C -5.073201843239129 -0.11250989537028883 0.40810544997735193
C -3.6863576166510343 -0.4205382340669922 0.7098975821966321
C -3.130800708905876 -1.5513876518278666 0.3021067367322013
C -2.878759944187181 0.5661261096950368 1.4975290324605215
C -1.4134722752122384 0.305057300290681 1.1137849082504314
C -0.9041402671467583 0.9235825017343836 0.09980766642156091
C -1.8919658131130177 1.8682565129504256 -0.5958102668284314
C 0.4066151062313781 0.8880926230298264 -0.4911347372422988
C 0.5780549415326686 1.6807224493879598 -1.5555695003954249
C 1.5664590785058825 0.09489958082069955 -0.07163769676831604
C 1.7223474730460941 -0.7563978071505638 0.9065445284349134
C 3.1266680047875397 -1.3175913416170582 0.920324231541515
C 3.7493377676126443 -0.6522631732079327 -0.2052599007330437
C 5.1274110063029905 -0.8369137246358352 -0.6450045444578129
C 5.908294474969662 -1.6675015213057387 0.00450289732495878
C 2.877308304457491 0.15041641348418763 -0.7760175172423525
H -5.083545466564809 1.71300876234883 1.3626550963488944
H -6.671820799899234 1.212851133311892 0.5694182669220251
H -5.646233021360631 -0.8265314552033487 -0.15809356281849485
H -3.660843175362766 -2.296890281860811 -0.2662407386255377
H -2.0967048135600383 -1.7519215681567106 0.5424345281734521
H -0.8956954653151173 -0.3890610234595011 1.7258533274900572
H -1.5353271234850216 2.894264906510175 -0.582847689247888
H -2.8637029244494503 1.7753236273014636 -0.08800842737534502
H -2.0066993831906617 1.5103640732856551 -1.6321397740753998
H -0.2144771101978829 2.2804418336360106 -1.9141346874184144
H 1.5102979314051959 1.7162850882802352 -2.051228304536979
H 0.9759698914472429 -1.0525666312839397 1.6348649289216313
H 3.553968811685884 -0.9779611489766629 1.8983604446358202
H 3.0979910998335036 -2.422967295122485 0.8518483976569629
H 5.472228964263175 -0.28307296962845785 -1.4978464763134636
H 5.616427597822462 -2.2410695461573815 0.8560928639556196
H 6.920270242131737 -1.7817166390483852 -0.34490629049938876
H 3.0965402691225696 0.7630860394826305 -1.6407373301036337
