21

C 3.2427277149634715 0.8162473308313138 2.2106877282194484
C 2.6501286319333164 0.4986756511068173 1.0562760429892264
C 1.9234027178442181 -0.7347906406113037 0.9283523920618849
C 1.372261626003323 -0.9697474098911848 -0.2365422297943101
C 0.7560367644249526 -1.0746331182640312 -1.382576551870153
C -0.5559682195929372 -0.5125736164421667 -1.5100758567026484
C -1.2258111372912515 -0.5875961000850086 -2.641156319818769
C -1.1750617372883727 0.15051526111986788 -0.39669314874872585
C -2.349253945215059 0.712332884651116 -0.3373691376878408
C -2.793086349050294 1.3442202425367062 0.9224714969601052
H 3.1918799332165038 0.16203165102333716 3.068243788362612
H 3.7783741509454227 1.7420561765531444 2.279586457884655
H 2.746335778570374 1.2079838757121804 0.2391615814341591
H 1.7560588887983979 -1.4952452425095386 1.6374002815226048
H 1.3373932251366043 -1.588660478519682 -2.1155050229992907
H -0.765701862607511 -1.085664750485514 -3.482830623481559
H -2.210216710909068 -0.19292155265916994 -2.8155403580743563
H -2.986164731853217 0.7151640452634523 -1.1956933992195198
H -3.1877473241411467 2.369548286127529 0.6945708322835604
H -1.939482903976341 1.4201305468560168 1.6449035751228003
H -3.5661045099113724 0.7329607567887401 1.4323284715560514
