20

C 1.7596807271609793 2.7327668543892223 0.8771186925190825
C 1.9998393155625704 1.4549036832571263 1.0375558633194741
C 0.9961963322549553 0.4497443762268377 0.736073685059553
C 1.2002798065854072 -0.8420624889575841 0.8844021574869662
C 0.13439432403338988 -1.8125885772801107 0.5585915637735653
C -0.9892005895293601 -1.2162197735475542 -0.23105690025799352
C -0.5294723284273942 -0.6474026699605891 -1.5501507054531025
C -1.701222486756197 -0.05999425183842642 -2.302078742666136
H 0.8013953491631822 3.0701435270819495 0.5138263898631813
H 2.493997424243967 3.491306115998449 1.0963542178578194
H 2.9585402520826087 1.1383520106188099 1.3997974687120938
H 0.021003878215809537 0.7939685271846276 0.36624607387838404
H -0.25623472701150124 -2.184117523909449 1.540586568806608
H 0.5517666453353605 -2.720465788988204 0.04300490262807173
H -1.7246255942981896 -2.024389229514518 -0.4938597434131059
H -1.5562121335555457 -0.47721354648169656 0.3588077185272669
H -0.09710152667953163 -1.436431253915658 -2.197311951249901
H -2.6043359490667077 -0.1159662879226022 -1.6579767550951148
H -1.9317034437098812 -0.6191607439876181 -3.2194995869725638
H -1.526985275597134 1.024827041550545 -2.4949564420878296
