41

C 0.5080783480257103 -3.822838809237082 3.420633849223384
C 0.49434234874693994 -2.549777497255861 3.0404089560470546
C -0.5829288339105689 -1.9293061309865327 2.3523479768628155
C -0.4729877912788399 -0.678906868562251 2.0407220913368467
C -0.32723539374504995 0.6122406338073064 1.7769011567652737
C 0.4814474954677176 0.8763712999706783 0.6310945167784912
C -0.1292203013163288 1.1634286121486763 -0.4894411950662234
C -1.5662339416009063 1.2269102145867397 -0.6412001836265858
C -2.0713242121192157 1.4034459122385041 -2.0828392683000563
C -2.5200664830835677 1.0603484045372673 0.20292482913420282
C -3.9681544598982557 1.2067177079082636 -0.2747195122222652
C -4.68470145252519 -0.10068993364278128 -0.23893859988620644
C 0.624365213171905 1.5420368754044198 -1.743484142996681
C 1.8655662580508916 1.318161952395979 -2.124125330497846
C 2.9179046059699836 0.6082879513685757 -1.4013752595745035
C 3.8431033138298045 -0.05412115236578583 -2.0548540495595202
C 4.910914479747801 -0.7738679029699989 -1.3117962073438734
C 2.964130846300728 0.6301215660205418 0.08406398815174507
C 1.951375079334684 0.7420804961188386 0.9029175510606213
H -0.3416665140398801 -4.481135972606691 3.2152141312789912
H 1.3404870261322708 -4.246215046187443 3.9353336797470857
H 1.3779702477006257 -1.9790040003494542 3.288119897847094
H -1.512039281749349 -2.3590496765284428 2.035341603246609
H -0.7904464460471432 1.2517059835503566 2.469326757618026
H -2.179204720758612 2.4358537113562444 -2.345102818425705
H -2.98722218017957 0.8020658766584585 -2.2537718270220615
H -1.2970528054785777 0.9053173665926432 -2.7200667747942897
H -2.5224853924450703 0.8237101969911538 1.248965583302551
H -4.081387788973722 1.7615274161171997 -1.1924947827499823
H -4.446815268899959 1.902240066299472 0.510635134460606
H -4.815870328400003 -0.4831844222698076 0.7900401782032053
H -5.680592256400752 -0.053572677397951525 -0.6974348934434096
H -4.087156449222233 -0.8973649445309628 -0.7672048914253804
H 0.021513375597329493 2.13144816592746 -2.418559048558287
H 2.184597094245498 1.684017738090628 -3.1019745598473376
H 3.881602475898252 -0.11259609110367923 -3.133878358164428
H 4.485205201566004 -1.3186259246276475 -0.4373437407564865
H 5.654661112939802 -0.011671653152080241 -0.9996909904524878
H 5.4198469365200825 -1.5059782564880415 -1.9375755518476259
H 3.9680120330899924 0.5325957003386191 0.4750258706284823
H 2.1696688097540555 0.7372731117962865 1.947854234838248
