19

C 3.155021813258847 0.9228069589079232 0.03107059950765707
C 2.12403908048534 0.1690496643028716 -0.27086216759906384
C 1.8633057303124365 -1.1050743728154027 0.4215253014924279
C 0.5710290823233402 -1.1507896733831748 1.1124826505795067
C -0.4847559831546888 -0.9641455102192941 0.3685822389683981
C -1.4724704642334716 -0.6651412202669895 -0.4493640153992119
C -1.7849624203504804 0.7488772000346519 -0.5852234058083698
C -3.24391041881122 0.9544958475480065 -0.24461444783342312
H 3.3291660505972875 1.8504847044862789 -0.4857869214310894
H 3.853083350582385 0.6287585352981079 0.8061919674666335
H 1.4514670350091832 0.4913466524076725 -1.045388472046355
H 1.9879418757864815 -1.9821441886805904 -0.27584800342840965
H 2.653135219233713 -1.2495697649104762 1.1883431227549188
H 0.3485460139657423 -1.310916007008834 2.129168925735171
H -1.909526385598132 -1.5091230260354382 -0.9040533026713808
H -1.4957782516626572 1.2055329894542257 -1.5386026602729284
H -3.745348452360847 -0.012427922814107284 0.027315548206127003
H -3.393451717036981 1.645548632927549 0.6075323966821475
H -3.806531158346116 1.3324305007669597 -1.1252138290835274
