19

C -2.1686815080993997 -1.8742347985608627 -0.13232174379879988
C -1.6694417537330897 -0.6594795527864615 -0.1919645386497496
C -0.255439300894548 -0.38553055536514985 0.009839655952993532
C 0.6857407985788675 -1.3565958610307447 0.27971033311362276
C 2.0302988678418856 -1.0096863280752575 0.46170056334506765
C 2.4233643028698815 0.3101645286822634 0.3718906725732484
C 1.502011652111814 1.3022518888033598 0.10282934118038221
C 0.19455839392558483 0.9403300992910488 -0.07126249778532859
C -0.8240604734718682 1.9769196720397466 -0.361669562890842
H -1.5379167248980774 -2.7324146516519936 0.07247891671756415
H -3.2391409029819567 -2.0188639292031456 -0.2924492901236023
H -2.336784143450248 0.15008592915736566 -0.39694539801177287
H 0.3838597718398523 -2.399534365708813 0.35212485500618884
H 2.726591741057344 -1.8169625315906686 0.6717908179081558
H 3.4637008270992733 0.529412505951895 0.5184874333482299
H 1.8131784886610127 2.347925173797689 0.03164580998948151
H -1.3794747067552726 1.702875455107639 -1.3058368023996274
H -1.5042364591253157 2.069562712925097 0.48578101920084893
H -0.30812887057578314 2.923774608216823 -0.6058295846760192
