37

C -5.167638044237942 3.688307710391136 1.3696552656900973
C -4.1362350970312205 3.309778226788605 0.6394099873571819
C -3.561702425276981 1.9889048962166558 0.8022481350093379
C -2.5291113910478713 1.5880016276110953 0.08240855329590402
C -1.972896002757207 0.2667275799270552 0.26186872887707574
C -0.954647139267279 -0.11807552308696105 -0.45340832302484185
C -0.3196784081877121 -1.4585868672872786 -0.334641300151785
C -1.1348050998830534 -2.35831922472828 0.5664905530234924
C -0.153006569864892 -2.1125110108702474 -1.6448681644041336
C -0.9621417003005361 -3.089352097786741 -1.997595635368882
C 1.0339547969354363 -1.2403576555990807 0.23465997326064303
C 1.843936458377174 -0.33278671993118264 -0.2813374106542638
C 3.186363979374238 -0.10095081086610512 0.26624275955660337
C 3.763604957470679 -0.7090192731293625 1.2820911973669178
C 5.104191937782694 -0.200599478869753 1.5235897880829459
C 5.336446182289961 0.7358402496540299 0.6299894660840585
C 4.154419587468606 0.8937986459738396 -0.25143157741088346
H -5.604665465361105 3.0213690312082413 2.1036100182736934
H -5.632044565519111 4.659572078758235 1.2875627437192987
H -3.721788276378569 4.014857411955585 -0.09396272660152792
H -3.996022113236545 1.3235322812688415 1.5329767330242012
H -2.1273078295278904 2.3008662821242587 -0.6435647022066975
H -2.3980193779664516 -0.3957438471705474 0.982922024520492
H -0.524990897722867 0.5433709003242432 -1.1779998618712069
H -0.7412395541170548 -3.3968694947732887 0.4273237461149189
H -1.0045500133257084 -2.089035452618891 1.6530274762241193
H -2.18878343494294 -2.3015206688386467 0.2872032749327727
H 0.6243061537535717 -1.7964210686511841 -2.312425278421225
H -0.8658637304302982 -3.585342218283166 -2.9456956733924353
H -1.7663496269352439 -3.4428204200245425 -1.3497453891102218
H 1.3946876809194975 -1.810514213302362 1.0790695453482249
H 1.5024439618944854 0.2483286770018161 -1.126287542094901
H 3.316542049139926 -1.4924076131868735 1.878365024306273
H 5.815076421805259 -0.5186767554329256 2.299714387105822
H 6.241115279549579 1.3236551358366613 0.5231096908593136
H 4.412278129643471 0.7118673720734315 -1.3291001961842066
H 3.7341191854800204 1.931132306344044 -0.11265068999721471
