19

C -3.5897981356606543 -0.7666446240637173 1.0183510285723312
C -2.3255161712477643 -1.0500871431245955 0.8926079991583653
C -1.5055545092536824 -0.31494887398078786 -0.057020089928099676
C -0.30158686519488614 -0.09213927571958525 -0.6422084074144496
C 1.1150035903739282 -0.5269289525678093 -0.6723876003736912
C 1.933406650366872 0.49303487754419056 0.11380621501076554
C 3.3917035174963335 0.1490486619203105 0.14822379634611965
C -1.4272568632571991 0.7572917939752087 -1.0942319131842526
H -4.0374730044617335 0.007006637050258876 0.4268765273877255
H -4.197933159301945 -1.3051450541665035 1.7162825556878358
H -1.8822417782298746 -1.8259856918759068 1.487581346831525
H 1.5062582271008285 -0.5587004338884377 -1.705890453422416
H 1.4917502544100272 0.5728477614548113 1.132934792612211
H 1.8174955184142287 1.4608432257731774 -0.42059867219834735
H 3.918086658564266 0.6855790983314597 -0.691169114097236
H 3.5340358623059482 -0.9516101963286799 0.04854328196205529
H 3.8592006463215296 0.48871587944578926 1.0787866753267676
H -1.3700436114820995 1.8025398802241872 -0.7283618111958974
H -1.9295368272639433 0.5287294256064473 -2.0521261570812697
