24

C 3.618067126798049 -0.8451700786312561 -0.8325786603653537
C 2.732324962171832 -0.44912418329614096 0.06083822829022546
C 1.497652058874603 0.26385679672107676 -0.33551007957842827
C 0.2639447979857067 -0.49721450428946184 0.0880858782949304
C -0.9498229746787937 0.29154173577381004 -0.3504071995165179
C -0.8031469608186493 1.6114981722073474 0.36739959222090135
C -0.8402822511169675 2.759589425765078 -0.2623611448141985
C -2.2269611833987164 -0.3053886589857703 0.2613543345074215
C -2.446509014653179 -1.716298989087692 -0.14178165456417594
H 4.520119990627324 -1.3666798894344767 -0.5368830166473515
H 3.4387549103423956 -0.6442850553407988 -1.8830455534512367
H 2.9168884049455386 -0.6534592771096546 1.1172600671429875
H 1.5270747510502465 0.4355233745839083 -1.4390401860050537
H 1.5117859177446649 1.2753910415034062 0.12102002396320248
H 0.2916103468167854 -1.5146549016665407 -0.3090377850701504
H 0.2596907499619225 -0.4747261268610988 1.2115130121025428
H -0.6658451058890311 1.5216380268823453 1.4399738652141834
H -0.728352583022861 3.6672235384041723 0.3155026154499995
H -0.976271486150736 2.8563051934536365 -1.3268550171779856
H -3.1068750245229273 0.29315266679740415 -0.05057759231028665
H -2.1764937483283577 -0.1949136825015819 1.379726538669122
H -2.734616309190965 -2.3052432755856906 0.7650414679970813
H -3.321859088523305 -1.8077397285380266 -0.8426442729321506
H -1.6008782870244864 -2.2008216207639553 -0.6466056111180348
