18

C -4.036081431034301 -0.22686529476552908 0.13423139455245156
C -2.727797671371031 -0.15603976551344026 0.08261624389528677
C -2.02625332712769 1.1137549123083217 -0.03282486865356882
C -0.7164483792149473 1.210996583639634 -0.0863800218962821
C 0.16071479378644693 0.0460977989853576 -0.0346163385745554
C 1.4753039049676024 0.16936760540700616 -0.09021973507140349
C 2.2708692478671755 -1.0785590798253752 -0.029629545831573102
C 3.7414278638328184 -0.8385427651178662 -0.22981636051186208
H -4.576124327293479 -1.1525260350719502 0.21940545470123193
H -4.605375827768231 0.6918111510667979 0.08904579383556556
H -2.142532430462425 -1.0555364925248583 0.12587298154672796
H -2.6126503831430576 2.0137288617018743 -0.07606405889266897
H -0.26644286618706836 2.1863117178114613 -0.17188802756003918
H 1.8877489689660707 1.1458916310880374 -0.17449144627658852
H 1.8594054298538851 -1.8843639172146092 -0.6501132417262694
H 3.868217420277941 0.2784667259674142 -0.3234090237167104
H 4.076613144461547 -1.3018663291037764 -1.1629152206734807
H 4.3694058695919 -1.162127308840053 0.6056730296938436
