23

C -2.8695691889736206 0.12956043702266226 -4.343523934783369
C -2.2031395395005657 -0.2902176073586846 -3.2881459157635335
C -2.7068297845588827 -1.3797888972981016 -2.5349083187820463
C -2.0256148918192953 -1.7731725561954017 -1.4953306674290814
C -1.3132693419847312 -2.026557992975752 -0.4106064201538026
C -1.6737394780172585 -1.2863157547557693 0.7538227160561926
C -0.9078340181873951 -0.3682167159894395 1.2675904365790858
C -0.02111732812844318 0.4551317721115101 1.7085891912373354
C 0.829207390094643 1.3968397719680437 1.9689224732011448
C 1.822176500359958 2.223734520242106 2.0107261842576074
C 3.237349324206009 1.7632101040479675 1.9449928806394037
C 3.6851892077475585 1.2609041231815907 3.2837737744655264
H -3.7937997291200714 -0.3255674706978009 -4.663660877593936
H -2.490211200500611 0.9542173136806567 -4.915265983466557
H -1.2921247562795664 0.21018321305654547 -3.0299638729080036
H -3.592672362882065 -1.9507697355931362 -2.690921516291872
H -0.5666592750748399 -2.7526964916558954 -0.5713536319748511
H -2.617126505158932 -1.4827231071269735 1.2418753574279353
H 3.258718070152101 0.9356474698631583 1.1837974770149924
H 3.911364826788183 2.5829957155352368 1.6415295618366272
H 3.0839967756906423 1.775070786899116 4.075159099275158
H 3.482104315606067 0.16250307167165934 3.3876586176794437
H 4.7636009895508815 1.436892754112251 3.475243369473939
