19

C 2.741608663840705 1.1477868719563793 -0.34369833449707615
C 1.7442625581083537 0.2899618615220268 -0.31236554896559876
C 1.544216948271599 -0.5793919383967981 0.8366193426434397
C 0.5697858294837918 -1.452397566281613 0.9244031119119783
C -0.4041047705527222 -1.6157596944091703 -0.15003779503886522
C -1.670690878470526 -0.8201403907686851 0.07054811853855728
C -1.467901665775041 0.6284436938735138 0.1772254859960735
C -2.0490874349569004 1.432332951641627 -0.6742334985092606
H 3.4140526129349995 1.2030968975544818 0.4923470008852522
H 2.893057035153794 1.7921501039334031 -1.1909472765263203
H 1.0639010468440306 0.23733456544491763 -1.163743070327475
H 2.253815648191817 -0.4942317992615303 1.674978884215211
H 0.0001255253995539911 -1.4749927515875991 -1.1569096999831572
H -0.7474810746146645 -2.6961820236456093 -0.10790319788069624
H -2.136616842457047 -1.1677532848924672 1.0142575582905842
H -2.335574333127635 -1.035163138393278 -0.7813866321264851
H -0.835117221764244 1.0847158479998689 0.9576328424929595
H -2.671191325474821 1.029665585330068 -1.446540687362553
H -1.907060321035413 2.4905242083801586 -0.6043467309619472
