19

C 2.7963922080537946 -1.6862633715837483 -0.43306280893978255
C 1.9851101773339845 -0.6500381955315103 -0.49719377299230044
C 0.7401270993746394 -0.6074498318125293 0.22873215820719345
C -0.11519585963758143 0.37243897421232425 0.22108974964306735
C -1.3796138692952675 0.28480192537389304 1.0280713975368394
C -2.2775321643615305 -0.8205544718418101 0.5126757281939575
C 0.0727797317772802 1.6065556279364877 -0.5492844297433573
C -0.8034888165726126 2.5812609076592983 -0.5415702027097313
H 3.720710214185922 -1.7582839889805357 -0.9504905045414213
H 2.5086190373436894 -2.535222086784782 0.1921807049539224
H 2.2656082227938024 0.18616554329086957 -1.111283365726161
H 0.5030165728870483 -1.488502759284063 0.8406029267229815
H -1.1375516688244198 0.14670290445324022 2.105715098810888
H -3.3440546521868653 -0.5475751772331842 0.6667518996635887
H -2.11598727899787 -1.7805809401553396 1.0706176045823703
H -2.06457790035456 -0.9736300058352232 -0.5630339627269991
H 0.9628609269080605 1.726369474682955 -1.1482900568215122
H -1.6958563245503724 2.481519844121942 0.04812358902197045
H -0.6213656558771018 3.462285627311657 -1.120351753135522
