23

C 4.925406726649316 0.8694693472116202 -0.3495556148710977
C 3.61553635472655 0.9507942209587134 -0.4130618187217053
C 2.8142762229381795 -0.24689910856209876 -0.5493719158601031
C 1.5040497730847293 -0.15865598565370895 -0.6123619822316938
C 0.6435802872272479 -1.3256044908678768 -0.7494272146155347
C -0.6545921522768599 -1.2806024821612247 -0.8153010673416613
C -1.5004719541683433 -0.0774723925129271 -0.7667017369365714
C -2.404052947561389 -0.22211674516722255 0.4212158006428309
C -3.4597601964807874 0.5683365803791377 0.4684372738445376
C -4.46314432705321 0.5822327519071264 1.5437039480525683
H 5.436046743374281 -0.0974864869834083 -0.3978702549093336
H 5.569444552491445 1.7317906741093025 -0.24783503138302057
H 3.1787461839977684 1.9471645245048614 -0.3585129224661707
H 3.295783715191586 -1.1996656991059753 -0.5981333012981851
H 1.0253854392649404 0.8087397098903341 -0.5620224055860332
H 1.1574961189813235 -2.2912653963562297 -0.7973246059358521
H -1.2019961702173303 -2.2268927881696023 -0.9183876098616073
H -2.186313449089269 -0.08468344952570729 -1.6592403647211518
H -0.9787498319375302 0.8782908604288548 -0.8003726057353037
H -2.2155875051247746 -0.93710673628654 1.214705036385529
H -4.937497525038458 1.5885706981401824 1.6432149582207793
H -5.221440989221897 -0.17765465112492812 1.319363502462517
H -3.942145069757386 0.40071704494740573 2.5271669825596677
