16

C 2.825906157947104 0.07737489563414902 -0.16435882599953533
C 1.5961265804682025 -0.21510365169965542 0.20238385143387816
C 0.4641786309027749 0.3717850857873763 -0.4481936576738155
C -0.7739090652916485 0.0952275125901087 -0.09962572953612785
C -1.0114672280823414 -0.8685408060443862 1.0184044409148345
C -1.950331046665702 0.686773801453561 -0.7545122522136604
H 3.6986727331414224 -0.350308566367574 0.3086073362491197
H 3.0091582213826755 0.7741137355959091 -0.9729169439315356
H 1.4675620962493299 -0.9112885226544428 1.009012689502208
H 0.6053940592867828 1.0727074939701986 -1.2606152939959812
H -0.6784632005367152 -0.33358709092705324 1.9444825170491367
H -0.380870494919324 -1.7516664626376883 0.801108637689967
H -2.06577989862398 -1.1381410142310202 1.1108068608119293
H -2.4353380763682133 -0.10747946486190724 -1.3537169679774346
H -2.7101906581687727 1.0312988119832638 -0.002769456045620686
H -1.6606488107216226 1.5668342424091577 -1.3380972062773397
