28

C -2.7386361276646003 -2.1594765515836802 0.6379121207366089
C -2.0019954757694056 -1.1207083199397863 0.4344482534927243
C -2.2764289047824544 0.27113688895349186 0.3088205480105311
C -3.5606717611970797 0.8920490497863103 0.3716868675092119
C -4.733474507314414 0.409480096543108 0.5453847380998257
C -1.2408851461818626 1.1390934523813805 0.10581526495964128
C 0.13969588809417446 0.7762489048547724 0.011211174359525563
C 0.7641558622849128 0.06903827042099207 1.0127385522433625
C 2.0638749162899526 -0.29749512683761964 0.9215432184413684
C 2.8098163643917013 0.041485491282945604 -0.21018846628138002
C 4.185709383761089 -0.3818595634505407 -0.22907712057812205
C 4.976380958530902 -0.1291392168818949 -1.225274773962533
C 2.230591937535428 0.750354963181756 -1.2417690521133011
C 0.8982108475820955 1.0966057303512506 -1.0908302057799975
H -3.7803430442953854 -2.167328300844443 0.7604001144198357
H -2.3024335547097268 -3.1907556976959923 0.7031190541541618
H -0.9098442076502824 -1.4355390127106809 0.3095137836919171
H -3.554752887933765 2.014727993001185 0.2476350024693066
H -5.063941707764306 -0.591375899760916 0.690368821167743
H -5.581896010207471 1.169203363975837 0.5463526343118252
H -1.4778233633665745 2.1948856502118903 0.007013310917194513
H 0.21471518554729632 -0.197652168605861 1.9129802379404752
H 2.506610645957072 -0.8580885828468603 1.7482642457744384
H 4.594688483813253 -0.932663506038111 0.6119719596241808
H 4.632450395252424 0.4101894211434267 -2.081008392307654
H 6.002595037140507 -0.4518836876210232 -1.2274839536632762
H 2.773178176728885 1.0301934345511357 -2.133388039695292
H 0.43045261592589973 1.649272924178185 -1.8872289030808405
