18

C 2.761910024588385 -0.05964212194979834 -1.177750528826175
C 2.292223091120095 -0.13594465186472732 0.04879214997357504
C 0.8703301330929133 -0.04298483419168686 0.3011710026943107
C 0.32673602625241377 -0.11265672322456692 1.5194929692163142
C -1.1149913830046854 -0.02237277580740035 1.7115202184552893
C -1.9176605897874084 0.11366157536135255 0.6851248911184719
C -2.633251269567697 0.2639055328980358 -0.6665718587755604
C -1.3437828915384553 -0.3815934616681046 -0.6677098791479876
C -0.025186952881426836 0.23643339528940313 -0.8500347629938045
H 3.810537263540771 -0.12758027965889118 -1.3704910908315588
H 2.089785335049533 0.07630809936671414 -2.0414024319941153
H 2.9931373631287888 -0.2689961478013977 0.856313322820966
H 1.0007132390189042 -0.2386871023702335 2.356103088323531
H -1.5086059744705778 -0.06856841821652708 2.6999067763116673
H -2.679738621773872 1.3212154816772992 -1.022130494186786
H -3.5334148846642885 -0.3688636736712375 -0.7642256218860679
H -1.2863453210900073 -1.52100365622931 -0.6299007286450834
H -0.10239458701336934 1.3373697620610534 -0.9882070216269708
