16

C -2.682072888204158 -0.5470973326451036 -0.7516983971733596
C -1.8533052314794156 0.4478635144515337 -0.5821040575882322
C -0.44216048884073084 0.3335879543114745 -0.25290291985254953
C 0.2175121642705752 1.423003626169895 -0.12162762969989503
C 1.3301467449603306 1.5355301699918464 0.5415403580349488
C 2.377664633332386 0.5562134357896806 0.8658994126967056
C 1.8618771067705777 -0.7747198277954156 1.2478983306605969
C 0.9720316028309902 -1.5106206327147287 0.700541520032611
C 0.049830557581841316 -1.0288793705028865 -0.11641102584133901
H -2.361716957626267 -1.5545801447778707 -0.6547987914777196
H -3.718385918065067 -0.3934215138212148 -0.9952599510729611
H -2.286521454475155 1.4585707045214575 -0.7061220399176302
H 1.5270849012875913 2.5252207278160226 0.9270018468626339
H 3.070187412662604 0.5042232228092375 0.0004875613202279768
H 2.312132417611591 -1.1892490104869788 2.1333045436230695
H -0.37430460261722664 -1.7856455231164352 -0.7594424101930277
