16

C 3.5802210831915446 -0.212769882193177 -0.0738232022557073
C 2.4303794151149285 0.1662981530733705 0.43637571044875223
C 1.2051732221203966 -0.21851500107408348 -0.2440250456753434
C 0.0281573128759841 0.13487212063866733 0.22446233731253667
C -1.1930617587384087 -0.2785674897768913 -0.50008851949316
C -2.3473519491777513 -0.06476383233863416 0.3888317819865615
C -3.321388027483953 0.7545882594734634 0.03268020584281007
H 4.526642933640046 0.04836019303326498 0.39569599555907753
H 3.6431895812602604 -0.7978041093546566 -0.9774642158280544
H 2.3716903923842367 0.745576723412276 1.331383174663908
H 1.233926013815487 -0.8133516040888089 -1.1651978897879316
H -1.1108818926000874 -1.3517595716522255 -0.81291211977577
H -1.2796661038553425 0.337327053586025 -1.419601761758574
H -2.345801254977412 -0.6108222272724182 1.3325954904709165
H -4.171467309441933 0.9019855295898397 0.7047576114420763
H -3.249761658127982 1.2593456849439775 -0.9193947814037424
