38

C -5.756391026301512 2.28027389735745 -0.2006090576499719
C -4.462170835206941 2.448561868786602 -0.16052837162296296
C -3.535167301234799 1.3421288154945135 -0.06790128132338685
C -3.9872002832360396 0.049768179047965815 -0.017569304337255696
C -3.0500184767400755 -0.9820211847211268 0.07151137257290378
C -1.6992022901438457 -0.7229810125978762 0.10889551494693894
C -0.7511673016803866 -1.7266817799656713 0.19690290146742134
C 0.6088373244046811 -1.4557758032914703 0.23399901640468238
C 1.067261719577607 -0.1616391046583854 0.18382052873317664
C 0.1379991457663283 0.8498216369839824 0.09611498759514145
C -1.2143844034091698 0.5823829998432819 0.05912286191110386
C -2.159458982906726 1.5676383635423397 -0.027832152579186708
C 2.52662429864618 -0.21791387280381067 0.24171321677951302
C 3.2136324730127304 0.5259302817939056 -0.8161636020505392
C 4.4129659568661905 1.0082038355774854 -0.5369201868554281
C 5.552681392177715 1.5206249287323295 -0.1877388091833588
C 6.319647071845776 2.6404290010919396 0.38516726440544513
C 6.989985891518393 1.379031344372382 -0.09037415107304222
C 2.8855397875069873 -1.6345274299813342 0.3290448640440295
C 1.7789873501280042 -2.3466690303769044 0.3244871897602759
C -1.1558835734396489 -3.147978616162002 0.25574127131525987
C -2.610819167599033 -3.333479143645275 0.21061099160572383
C -3.504298335769518 -2.3656927049445917 0.12651716497634613
H -6.277619109416532 1.3438902559527874 -0.171501363894479
H -6.429332747014619 3.1564698475251602 -0.2716545458712489
H -4.070829841814638 3.4592763392953216 -0.19841176225730436
H -5.059269243379252 -0.20873444827735674 -0.044474345211897325
H 0.44816751460926746 1.8944695834212153 0.05334143256420365
H -1.8201466789790852 2.6058238201469774 -0.0691595651734957
H 2.857045638857321 0.7280781640202318 -1.799133471341452
H 6.258108836952443 2.8287054452125773 1.4922466442449454
H 7.550094182965468 1.4700895751919003 -1.0420011674574698
H 7.469463090046715 0.7194242870242942 0.642698306595799
H 3.8959091011890616 -2.011487178444352 0.38674127846841083
H 1.7514797362578751 -3.4332117879426027 0.3800707772778728
H -0.6352271208251781 -3.7375722152288215 -0.5185231523426517
H -2.9909984186447995 -4.341322859899703 0.2488241722473665
H -4.554845374587225 -2.573334297473611 0.09776817552770674
