17

C 3.4836109309338665 0.5377751789334457 0.9874442781411175
C 2.2298143104854757 0.4763178833031388 0.570987253633916
C 1.8085449905920907 -0.5473565443332532 -0.32630693641095865
C 0.5550560346853773 -0.5652562499101144 -0.7097068058071813
C -0.7236649748504115 -0.5039002800971422 -0.9781964351598456
C -1.5686104694193832 -1.2135864034571142 -0.06332559141703076
C -2.7169028391479495 -0.6929109533219517 0.40237314079733805
C -3.128770851629269 0.6638879236004075 -0.04322489759378573
H 3.79236073932402 1.3140391615927498 1.6647102318310936
H 4.2269275595453015 -0.1756376392792651 0.6681520484751035
H 1.5445568207941398 1.2235681745850715 0.9328143013120764
H 2.3760266929951963 -1.3307417882571722 -0.7485793287333669
H -0.972524627370798 0.0626819704720188 -1.8331327796582997
H -1.2877770940301814 -2.208974996397776 0.27729021074712773
H -4.232883052967003 0.7762953880527981 -0.016499062920839344
H -2.6552999914187327 1.4066955659833844 0.6158234770910019
H -2.730464178521609 0.7771036085308322 -1.0807967534823222
