17

C -3.6526584132442044 0.11659272528397586 -0.8728886277525891
C -3.062236966865497 1.2917758047514074 -0.6936262291137804
C -1.64410739015164 1.440029542693899 -0.5522504970185994
C -0.4842901159672035 1.5777514431177049 -0.42824458410000904
C 0.9317011875557586 1.7444975750992051 -0.30196012859288235
C 1.5113123439412586 0.5882273445813224 -0.1365215215308289
C 2.2538487468618804 -0.4661902373168397 0.016226467221021407
C 1.9600842581973468 -1.1609733574199308 1.1778988530877652
C 2.5454647350498667 -2.264330210382979 1.6073123271398073
H -4.725237540412779 0.09096559781818693 -0.9709740041756786
H -3.0477815473974577 -0.7792766197654525 -0.9221360355715864
H -3.646012696530003 2.2231946610620428 -0.6467757724838661
H 1.3914419916724738 2.6692312454157094 -0.3297734107756974
H 2.994836975410132 -0.7737625181077614 -0.6737979018840029
H 1.1511591107023107 -0.8017821141031298 1.86348358386719
H 3.3344983597384146 -2.8052508600911295 1.1474612137228877
H 2.18797696093171 -2.6907000231636125 2.563684188580505
