45

C 8.623516994224767 -0.6108998134933407 -2.137970244223484
C 7.320079712580649 -0.41261745908292613 -2.0727555761750462
C 6.588549137498173 -0.1851021363398172 -3.3071277350492676
C 5.296793398325586 0.012599799499849903 -3.2189528352974173
C 4.5069080858506 0.2495862124918919 -4.429034983564336
C 3.212477842885693 0.4383435449411206 -4.2965316274937875
C 2.615238485844313 0.40393631345661957 -2.9852774762179966
C 1.3262554262094655 0.6076829733703135 -2.8360945740131136
C 0.7620756424100386 0.5560940950381688 -1.4422897618871313
C 0.18784726838852747 1.882608143509683 -1.174697895798517
C -1.0641919776506277 2.0800217023576164 -0.8787406767848227
C -2.0929340447698905 1.033397297176824 -0.7648257471328005
C -2.6641975356626717 0.9893396834026338 0.6250190283950275
C -1.888951892908866 0.6535562908398052 1.660000795755946
C -2.4297273343040806 0.6068586731524019 3.023502929264569
C -2.125769406657958 -0.5885084090629541 3.7943878413667087
C -2.9986198981104764 -0.9026718572850709 4.736681054441476
C -3.986059003742422 -1.2234058180349476 5.550861095649964
C -4.848754861774002 -2.2508351806384366 5.082356667225974
C -5.680584724044676 -2.0497485705728478 4.09643939048749
C -5.780934980518306 -0.7594242770644036 3.409184832684272
C -6.6294333616561945 -0.618657838008089 2.428540182096577
H 9.156058440253755 -0.6081504261665607 -3.0779424509145765
H 9.16302544998215 -0.7784589372824747 -1.2255706849457269
H 6.831678977751607 -0.42590680755404187 -1.1053329236532234
H 7.109563648858996 -0.18272874650079762 -4.239905321555251
H 4.987736883558705 0.2754408224302903 -5.37282407424228
H 2.619271471764868 0.6090655506432003 -5.166247863376092
H 3.2106629028086036 0.20435689186227265 -2.078463177599663
H 0.6808683415751612 0.8111949459577504 -3.6856469137308596
H 1.6274715977511929 0.34793004579205133 -0.7592088671123624
H 0.07125566288428649 -0.293094562140538 -1.4066424645122138
H 0.8470845232999339 2.7755436042756116 -1.2163838656877055
H -1.352088900254355 3.1489261015644847 -0.6977794262690152
H -2.9134078888235155 1.3343454828224375 -1.4857464884775518
H -1.7615501145963481 0.05830432357924501 -1.1088176129985303
H -0.84544248250945 0.4148308649785401 1.460700116664385
H -2.0898224168792012 1.4954595225769982 3.6310372798310366
H -1.3231198309195737 -1.26666702764671 3.74372414406882
H -3.9803926991656158 -0.6586207912637979 6.442070836240884
H -4.814083687576394 -3.220721875787834 5.553924847908403
H -6.319886339030572 -2.8728352444025287 3.7847931199020612
H -5.150902965161535 0.041867890801231974 3.7416769237616543
H -7.280186375077193 -1.4364005295064903 2.091968124218849
H -6.723377172876546 0.31416553128455865 1.9028175402441183
