18

C 4.104264330302524 0.49238697343677046 0.5069837472400505
C 3.020066713269284 1.1908010486130158 0.8021996180715636
C 1.7318843983036558 0.7855689891901545 0.32100058770963574
C 0.6485996415431474 0.42700507121595893 -0.09728231124823737
C -0.6516859083115533 -0.02056151687654009 -0.6216629446503279
C -1.0589944058516547 -1.2518500506150307 0.14739397457246264
C -2.3937219349623935 -1.7168870132844398 -0.3861290040961792
C -3.3542281631582616 -0.5772439726397317 -0.4737952632203476
H 5.068661535276713 0.795708057750496 0.86719129523512
H 4.068225248923978 -0.40037722447666535 -0.10021367740055616
H 3.105092197498356 2.077174403374799 1.4130383353883809
H -0.5032358020279477 -0.22605627939787173 -1.6979860810631229
H -1.4128285796436693 0.7768831501388481 -0.5517383526160072
H -1.1969075721525142 -0.928317753229049 1.2147684889689898
H -0.27986891956294985 -2.0084949368095093 0.09432713434026559
H -3.174820580315848 0.09508798859125461 -1.3356328960081167
H -3.3443416621759767 -0.02351724775263664 0.4872214516681472
H -4.37616053668769 -1.0077061056510659 -0.5896841029536741
