19

C 4.062434773493854 -0.3528434275333402 0.3737985713230284
C 2.83426929871391 -0.8236689192021459 0.4512582339070085
C 1.71952129426191 -0.03843973979809333 -0.0590647450668249
C 0.4705037177672965 -0.4963931304919275 0.009687481394298026
C -0.6003102816736398 0.37254974221850745 -0.5354388439488144
C -1.9203737274777315 0.08083587518219713 0.06888168290371588
C -2.07428563995246 -0.8477876842511995 0.9774036675170004
C -3.082476874838066 0.8849282350913663 -0.39293787033035454
H 4.278775527265624 0.6172543120156262 -0.06465696695370965
H 4.918761982786382 -0.9004253008638756 0.7392026792317717
H 2.698274195391654 -1.8043173975067828 0.9044351971797259
H 1.9398560583470839 0.9235548781502917 -0.49310761660330493
H -0.3102092398687309 1.4466326813555181 -0.39755071349857907
H -0.6058069623604463 0.20881283435921533 -1.645479358795653
H -1.2596143078151028 -1.4534527696946795 1.3404693068248472
H -3.053608145898422 -1.0452969679417137 1.4080182832853219
H -3.4739632009581753 0.4113168115296631 -1.311341624240964
H -2.7229728598230554 1.9115334846198726 -0.6596998483893572
H -3.8187756073619243 0.9052064827615467 0.422367789106361
