23

C 3.9238675317775935 -0.8522347956170507 0.8038392783881814
C 2.955749759570523 -1.2628869437146388 0.00019884158226210545
C 2.0172270596839024 -0.3215057052700688 -0.6311411439645614
C 0.5950090869635657 -0.596056511205928 -0.24021568912135083
C -0.3296179126055545 0.32196246814706275 -0.49589733326088264
C -0.17412997028622704 1.6543197584973588 -1.1441706880688662
C -1.3368372960225376 2.4125412591318574 -0.6215307245274028
C -2.2241884630067625 1.6031049523968899 -0.081829531515711
C -1.7767539445351945 0.1979830341303076 -0.17035463309925347
C -2.0179525909411664 -0.5667557597759779 1.0601413079981181
C -2.737153128089699 -1.6762181681623303 1.0276285752733187
H 4.615047397773274 -1.5146757061178133 1.2721911198412716
H 4.045368654112433 0.21501770874172613 1.0167078552846207
H 2.8756345619107337 -2.342061017660212 -0.18157002124539348
H 2.0921363859896194 -0.2906405822523848 -1.7230929689550472
H 2.2434572318898987 0.7049900700161125 -0.2639752136697808
H -0.19126000757857894 1.5971229098800006 -2.23973084181874
H -1.4170720881951935 3.5277204194607092 -0.6933010459493747
H -3.17413976471678 1.9719806527735748 0.3708290109637985
H -2.2806347903939588 -0.25962335439530004 -1.0515860211277337
H -1.6076037185352552 -0.22430000991858537 1.9974891006960491
H -3.1502094636844866 -2.0220922686857272 0.08793480768458226
H -2.945944531080131 -2.277692410399508 1.9014359586120084
