20

C 3.020230561511575 0.23597399036239838 0.3010589839419721
C 1.741596389692731 0.10057154438121511 0.5427670538849984
C 0.9832529250300578 -1.0810086825356227 0.02607034233918037
C -0.1153625859947991 -0.536911604601436 -0.8761699856139907
C -0.9821488133662302 0.35184825103567596 -0.05751523255407207
C -1.645209958245727 -0.2860130620794867 1.1001400657197655
C -1.8094483715363374 1.2858501675408054 -0.8560899157770081
H 3.565642435491086 1.093402895621136 0.6772435236389205
H 3.578954806262914 -0.4918140130122644 -0.27620254209614264
H 1.2118393729993 0.8334420386454493 1.1157743609720354
H 1.633014282782579 -1.797889294204092 -0.49869968239896545
H 0.46122149966515086 -1.549028980325599 0.8985335147819838
H -0.6644388749685097 -1.4062018397875378 -1.3075581214605843
H 0.3041504222140909 0.0648075421467207 -1.7113555499701518
H -1.0887931468350158 -0.021595895558834066 2.034552820437468
H -2.716199902850262 -0.005235958374397342 1.1704008260530885
H -1.5696752959972855 -1.4033080296549254 1.0258646980119657
H -2.293946123549681 2.047378249248057 -0.24080197164492217
H -1.1016045749778867 1.8359656919639373 -1.544760266775165
H -2.513075047327604 0.7297669891888261 -1.5232529214904889
