16

C 2.1080850054768003 0.49195867066184457 0.45162733689911677
C 1.168038099715166 0.8024006136914006 -0.43200381745658556
C -0.26563040044237324 0.7524980896241316 -0.1592067562973824
C -0.7512871419576894 -0.05779025840381979 0.9941506528661128
C -0.8774431343086333 -1.2463103996328937 0.031728638805590376
C -1.023960738855346 -0.21353422452469614 -1.0796112652638787
H 3.1649623480827347 0.5404499711716703 0.2142193643188088
H 1.8810376989766548 0.16983939881764482 1.4682475324888142
H 1.4972430579435383 1.1121637327967424 -1.4183074740451662
H -0.7188819699918753 1.7615486571001042 -0.15599576043124566
H -0.07927552600709063 -0.23649533926587726 1.8334540177237733
H -1.7958855949719323 0.2439891002247612 1.272274143333393
H 0.031599960124616126 -1.8589043668323495 -0.013685895534946278
H -1.822978526689158 -1.8286139397634742 0.1744713657285343
H -2.067338562619734 0.06546281949439849 -1.20666367477172
H -0.44828457447559045 -0.498662525159537 -1.9746984083631565
