18

C 2.139099345667564 -0.6258324781459983 -0.8214487447124204
C 0.9935297003784604 -0.8366488340437198 -0.17899574437586152
C 0.050299215108647106 0.267665808228895 0.15450823922310644
C -1.19495143828218 0.34012755462177635 -0.6813882676697518
C -2.0384339828550466 -0.9003554090329209 -0.59073713193077
C 0.5759333098294974 1.5968291743046172 0.5931837936232612
C 0.02329400627085056 0.6498949147257458 1.5896089147784132
H 2.3996429932004326 0.3774762973400479 -1.1137000198083287
H 2.772408497046747 -1.4678752697521051 -1.029997422569816
H 0.6901023940474861 -1.834020675020798 0.13516795636090054
H -0.9389409203647957 0.636271170607586 -1.7075381683308248
H -1.4882592747319243 -1.8338930350581575 -0.7197358342921366
H -2.85147521652731 -0.7962284144180489 -1.3535596165240924
H -2.5769692151811596 -0.8460522633666039 0.3997110137439745
H -0.019761947904046312 2.497660148524674 0.4119054741934095
H 1.668202053207379 1.7801878207587603 0.5798120834959043
H -0.9717799031720317 0.7885915055940149 2.0512016763916026
H 0.768060384261412 0.20620198413224086 2.2820017984034098
