46

C -7.07790336941002 2.65471742244363 -0.7141395429323231
C -5.826531302523621 2.7815488057383444 -0.3629413412382336
C -4.9246691731391055 1.6561735200271617 -0.2809877836409062
C -5.292960177269004 0.35868210960526 -0.5616103058698585
C -4.400596227462949 -0.7044507122084804 -0.47341010917213266
C -4.83384058758107 -2.001171524075587 -0.7712216228838743
C -3.9753308541642722 -3.067644488073123 -0.6925043579878708
C -2.6657529355104104 -2.8260407730412456 -0.3096287997911418
C -2.2267695931678713 -1.5509638732705 -0.013330878794764564
C -0.9350892416808027 -1.2680575251505464 0.37058939342676506
C -0.50657830021665 0.02366841654513098 0.6664396947291137
C -1.402515375706719 1.0674063820688102 0.5745525995470984
C -2.7148652434879064 0.8019436179661615 0.1875808806490684
C -3.5885520256506362 1.8426966811380725 0.10120939484438685
C -3.1128116246789492 -0.48561441725094184 -0.09954406678926546
C 0.9234411820147862 -0.01291646502368659 1.0422789707447067
C 1.6637484175061936 1.1572123348908554 1.4036406644217942
C 2.877826354668897 0.9544004764612017 1.867395471124137
C 4.091598978114393 0.656903684945273 2.236310182475746
C 5.061936187727429 0.575432026567647 1.165549029194179
C 5.185989528957144 -0.4184467996330002 0.3440316974745821
C 6.183893018181011 -0.4735106777630107 -0.7369715048495268
C 7.619637627367501 -0.6745652955907974 -0.42400770053746967
C 7.149328515701352 0.6692148601410888 -0.9460769736258723
C 1.261192004038763 -1.2731302268678764 0.9550104172497768
C 0.11071654173034123 -2.0660245221100015 0.5369776505772764
H -7.718581450614404 3.5443013041024543 -0.759681440925327
H -7.496942066395372 1.6957460188312075 -0.960658063087115
H -5.445966869759055 3.7614840571428387 -0.12372531707584314
H -6.308846226765585 0.11317228775274818 -0.8667978107387302
H -5.860711891574563 -2.1484368498670667 -1.0655141784911142
H -4.343389116749146 -4.053633541335367 -0.9292391610715857
H -1.9734281733810732 -3.656355622309937 -0.24196561542016462
H -1.0753687912700003 2.073830732062352 0.8032719164824422
H -3.259335745472904 2.8465012365895204 0.33011236895745394
H 1.391615025054915 2.17089326169399 1.3568012228207689
H 4.215620040287167 0.5112349852324952 3.2680706110926363
H 5.723117031894112 1.429384568279753 1.0676538832460778
H 4.521092919891449 -1.264232541980668 0.4502367612327345
H 5.845542508147512 -1.0193937727342814 -1.6676692964598456
H 8.256563873233477 -1.2262002553426483 -1.1349486586824307
H 7.9494801841212634 -0.7630708489049188 0.6207559815469513
H 7.358948393461097 0.9166844501640532 -2.012004943425051
H 7.246849679082351 1.4694689312529499 -0.21867744997820976
H 2.2569933432168816 -1.638269900920118 1.1689503654406175
H 0.0722050092350643 -3.1405715381893833 0.3755822523486489
