29

C 5.88996327801816 1.192672234207048 -1.2661505468612089
C 5.01599921306702 0.27905397419366246 -0.8860260313526527
C 3.684029544373601 0.6798698648608006 -0.4336296803003727
C 2.8007236125771318 -0.20773415926160244 -0.05197592627896554
C 1.4904936487560059 0.19475374312948895 0.3924543882799255
C 0.6057773126982771 -0.710533682572129 0.7758774138848966
C 0.1528162071854963 -2.116202676233048 1.0388846298085659
C -0.7852670241396503 -1.0649276810479014 1.3030754379733898
C -1.8782882683803588 -0.6732645547634558 0.383831157420108
C -2.829236451160601 0.16465303346718363 0.7241243269047256
C -3.8903313395115244 0.5368748037607466 -0.18662637215397843
C -4.822525516417153 1.3773979899907725 0.19082303115583443
C -3.91263093636383 -0.039208182844817856 -1.544742439108129
H 6.871918580269563 0.8978439603501173 -1.5997114071157352
H 5.618475631606669 2.2480853080019827 -1.2428679155565823
H 5.281849697368912 -0.7669170966355924 -0.907947476169928
H 3.4192420410141895 1.726875873543194 -0.41216293036252466
H 3.058828898190395 -1.2522671543293415 -0.07120265374885236
H 1.241941566418583 1.2441335564167098 0.40787115147251635
H 0.08150226794118728 -2.757257137789223 0.13967721214580164
H 0.643992513626882 -2.6235140926915426 1.8921287549290229
H -0.8969077114754483 -0.6802098631240061 2.345792924617555
H -1.876767079721231 -1.1058866563200478 -0.6056831473776817
H -2.8146788520966313 0.5876196262031717 1.7182539771259202
H -5.642124661183836 1.6989789105333823 -0.4345138110964231
H -4.807129256982673 1.8027682960352378 1.1918476509965108
H -3.0939202971266035 0.409594077180984 -2.1600422951604794
H -4.90534718829373 0.08866995820254585 -1.9730147709779273
H -3.7023994302586534 -1.131922272464295 -1.522279787908043
