29

C 4.786501691120919 0.3255127448968264 0.15821014892639537
C 3.588749218328307 0.10241604234473635 -0.36268357514647137
C 2.381366054375369 0.5299013776907029 0.4465719609642019
C 1.5427865147775446 -0.6589059037257112 0.734275034875954
C 0.27936869315507895 -0.6791508739318244 0.39131664073713496
C -0.4612824326317264 -1.9221594187265454 0.7232421921026398
C -1.7446826692116668 -2.022373726564245 0.4392173836318388
C -2.441857740772262 -0.8867401144301819 -0.21159568976963675
C -3.910415829983415 -1.0740182652503123 -0.5027511090110774
C -1.8371760891640707 0.19280681072231348 -0.5112485454080957
C -2.1979975809619456 1.4868078173723638 -1.1359438095068586
C -1.5539429895146675 2.376605151602629 -0.0615805699248012
C -0.47958389551433817 1.7180422892757181 0.43333871901617155
C -0.3679367464050813 0.4198240869477321 -0.2679283385902862
H 5.7073629270728 0.05087628030799669 -0.35387730085908453
H 4.911198192270809 0.7932706740668939 1.12172304575517
H 3.4738232470642485 -0.36727718234112383 -1.3296467738605942
H 1.8064452508574507 1.2597916451982778 -0.20215433236599617
H 2.736283896034906 1.0230534516344965 1.3666945311717018
H 2.0378419295468784 -1.5069219589158844 1.243825941200732
H 0.07788420866272246 -2.740338443532747 1.2023672001216466
H -2.280968463196215 -2.9368223153209465 0.6845953107033904
H -4.086221102210299 -0.6571179962641743 -1.5208956595028675
H -4.198907670468134 -2.117803693784211 -0.3919521787011896
H -4.473048814439896 -0.45294090589569763 0.2382786505274541
H -1.6420985474101515 1.6824241857609743 -2.068523372381469
H -1.8684633350057436 3.345485215324196 0.26337584225593386
H 0.15218332983638766 2.104366958955071 1.2080611935570673
H 0.06278875378606537 0.6113860665826086 -1.3047342805315927
