55

C -4.635458285597177 -1.177366924532209 4.609775456581104
C -4.051283604032276 -1.3956901014842251 3.4501008167982983
C -4.203705957652571 -0.4596472921278845 2.3763927132337708
C -3.59823868519511 -0.7350852992003373 1.2516431925841756
C -2.898088928916256 -1.096586451263277 0.1737414492193752
C -3.6745633440622214 -1.951921281545744 -0.709508327082482
C -1.573059201436162 -0.6369147969598716 0.14825850879691196
C -0.825034992469188 0.1535118761114289 -0.6086019320356547
C -1.3948102192473146 0.8029010912201142 -1.7555785143460467
C -2.944815520389804 0.7786711116776026 -1.856600869772349
C -0.8992399844108441 1.5061754608844826 -2.721694574861109
C -1.8222870484755562 2.060692139602684 -3.7973140607225337
C 0.6611604635020532 0.18864246948758343 -0.29805720320563384
C 1.3966140746180333 1.0343066547893272 -0.9195221820572796
C 2.7868719819284093 1.3578957958759457 -0.9249678689172128
C 3.6252717468985898 1.0850588395054412 -2.086067549397694
C 4.856482290651302 1.6453597313931 -2.093491716920323
C 5.52778277649749 1.5332406882396357 -0.9162032895308565
C 4.658399649303442 1.1817423455959903 0.1872516116963589
C 4.4657506355161845 1.7723846020530298 1.2965875102582185
C 3.515850731252066 1.2687853138149792 2.253935303396241
C 2.7226655134820925 0.26122719337093614 2.207250378593683
C 2.4342196244582945 -0.76946606690004 1.2432682106396595
C 1.0766287298972304 -0.844345149192809 0.651805123976754
C 0.8081283330701997 -2.225334448768743 0.12257108067224247
C 1.7865402409974793 -3.110452276039671 -0.023065988609945787
H -4.504572056960536 -1.8951943683064683 5.397181292065701
H -5.229879566828857 -0.2807535995850619 4.733926544021002
H -3.45737080797235 -2.3040138326599715 3.3453283600179735
H -4.73920479282566 0.4392448516947134 2.344670122854926
H -3.951542944960321 -2.8812682714158835 -0.1434123945128031
H -3.095863352677597 -2.223182847543906 -1.6289004261132944
H -4.62523702424968 -1.4129597180173894 -0.9715910648766793
H -1.0243351015043167 -1.016502402604255 1.0739275130955168
H -3.233335451334125 1.7915444682922175 -2.319551730426102
H -3.3611876668941356 0.8732718206302501 -0.8643218716551392
H -3.246658683935849 0.022409817003865955 -2.5345227426678294
H 0.11782173433608781 1.7127752777512737 -2.9284901834592594
H -2.585006271675251 1.3099948750982535 -4.054590610241436
H -2.3016611984206645 2.998516394542358 -3.4948958671019468
H -1.2204090360729316 2.32723749347448 -4.7112759716085995
H 0.8041580707402686 1.8183492748823826 -1.4829406495649173
H 2.8513897985463226 2.5028124449538702 -0.7908842049158786
H 3.399874687991737 0.49767329576401137 -2.941251452204369
H 6.537458675306242 1.668554549450034 -0.8213804242181697
H 4.21887411042949 0.2388422797233654 0.04325297427560294
H 5.0313990574484775 2.6467468532692036 1.4960983180626644
H 3.4724581906002316 1.8699836478656093 3.1978134197666446
H 2.0702130040039157 0.13664461226608665 3.1621794264222927
H 2.4605678997260054 -1.8084600015607644 1.8802615977802846
H 3.2067431138552758 -1.0176604570483547 0.5361343415266965
H 0.4153255988921628 -0.6798029664842151 1.5812358097673371
H -0.16483461870857463 -2.547346831806075 -0.17273440026158848
H 2.8124326683473337 -2.9256476816354406 0.21451071224931748
H 1.5406009446090716 -4.0895942036008925 -0.4076837170652671
