29

C -3.073387114734279 2.4383905899294724 -1.1280852269382216
C -2.898200564103376 1.1842558933405523 -0.8167582450602147
C -1.6041224159965644 0.5433963174766843 -0.5773620910024866
C -1.4989028169802991 -0.7152343852219835 -0.2706259544228528
C -2.444627497741494 -1.825974945613473 -0.0625576174730295
C -1.8374361838791125 -2.3690061935228077 1.2209404207036552
C -0.5095827878808633 -2.1111221110019738 1.2198199203768212
C -0.18828279362203326 -1.4025649121353352 -0.04116026469971794
C 0.9367608171999033 -0.4998220295994959 -0.06623040790673455
C 2.220200142071017 -0.7328746383483313 0.1338490105856385
C 2.96647707058202 0.49409973850358724 -0.005476378748862999
C 4.435908745249731 0.6681430730648354 0.1421122584710715
C 2.144606423046706 1.4841907306195228 -0.29268610200787976
C 0.804270802822984 0.943058683439126 -0.35300933566647047
C -0.40809121649133473 1.4113138048354512 -0.6207542453283844
H -2.2639483632195208 3.129978858419659 -1.2394439474828682
H -4.059867654472909 2.8586198659580195 -1.2941857602032798
H -3.825939972846965 0.576958830290829 -0.7334327025447066
H -2.316901897559264 -2.5570756823731697 -0.8845252986767198
H -3.479834668597522 -1.5246627358702456 0.07672658955473508
H -2.3505227550510517 -2.8685843500142334 1.998320323581336
H 0.2156589986277642 -2.3615809443407834 1.9826843104121554
H -0.10494412393936654 -2.154443268453357 -0.8843115100356208
H 2.6929390146508636 -1.6954095835988663 0.37207466362221114
H 4.7732818981600476 1.6461911188444802 -0.23604798200210975
H 4.976536207493403 -0.09882681383026275 -0.46713998983583555
H 4.774727895243884 0.5400119743001724 1.193182303929533
H 2.3964622522494063 2.5411955022438346 -0.4622020442395165
H -0.4732374402818504 2.457377612658116 -0.8714328911704126
