19

C 3.769683178877613 1.0729470636108291 0.11596320475181862
C 2.860260899362162 0.21059067980099028 -0.3112914067414676
C 1.5127348373183687 0.17450924520586103 0.24415992151149632
C 0.5931946372768593 -0.6782282984573701 -0.16944255844198006
C -0.7692732647446705 -0.6865828428056147 0.41908205473765986
C -1.7442173596256498 -1.7293456606282394 0.08517594916091871
C -1.9432589232675714 -0.42062560271910304 -0.5533007157370327
C -3.004507941600053 0.5388529091408193 -0.06786340564467071
H 3.523793701816375 1.7699607587340571 0.89078193874964
H 4.768637368467837 1.1001855424702023 -0.29534989094804165
H 3.100357938550696 -0.501173428671972 -1.0977099305704092
H 1.2528991619881669 0.8627412678101841 1.016686098354245
H 0.8751078058080031 -1.3701311953120971 -0.9551484487005707
H -0.8684546013598609 -0.2320774721747145 1.4356638533448476
H -2.4472121377248808 -2.163544767896246 0.8187771357392976
H -1.7053133140886243 -0.3411125373424775 -1.6159618936269915
H -2.8153163003907844 1.5311206520968084 -0.5604280650953917
H -2.977492987765655 0.7089151694484226 1.0176489398348474
H -3.9816226988984034 0.15299851768955983 -0.4174427806782232
