23

C 2.6855394369557395 2.7648791770746883 0.1309857353973523
C 1.73587453055184 1.860279209306011 -0.14519748872784277
C 1.4889855722182346 0.8161027813463407 0.7843995020499589
C 0.6539689608943928 -0.1628640339896793 0.8056178410402076
C 0.7071887623616468 -1.1165508327009115 2.0175325764155563
C -0.43316322616068176 -0.4184856601654041 -0.11934435943144928
C -0.952372368879672 -1.7262099372278135 -0.10040201696710138
C -2.0241218986716967 -2.0449379969760955 -0.8985504895851494
C -2.6340204296799077 -1.147054331384309 -1.7322592810039992
C -2.120464090778459 0.12114309764012786 -1.740614724479465
C -1.0295108139096791 0.5020713260015542 -0.9466932975324653
H 3.227170337034053 2.672912403233684 1.040903239235121
H 2.891242467551484 3.5557374171378835 -0.5449879633073967
H 1.2628656510082634 2.0005977961763803 -1.0953367653041355
H 2.158546849037791 0.8357544088736728 1.7041294789738763
H 1.1979690467320498 -2.0497743366314163 1.7520360469068892
H -0.3417648763134893 -1.2684831322046237 2.312339063168531
H 1.221110695486139 -0.5808745393682223 2.821602245653105
H -0.5071797454737098 -2.498886830668291 0.5447025295020255
H -2.419665338622423 -3.0726181169607405 -0.8731136145644478
H -3.4853717554015047 -1.4445247990683192 -2.351788418973693
H -2.567712616243412 0.8831619822215012 -2.388286808939867
H -0.715115149697276 1.5186249483333518 -0.977673029525518
