21

C 4.270798549335401 -0.253454914128564 0.37275556404062243
C 2.9446897944526924 -0.10993822169627629 0.389440232390412
C 2.1033800454152067 -1.0492731347613655 -0.3070839473359766
C 0.8056491190146864 -0.9185710443320053 -0.29743156801909154
C 0.20881722912443682 0.21684339758267876 0.44495135505331795
C -1.241053996895897 0.3321276614258004 0.13915788528184017
C -1.8701765730280753 1.346172547704849 -0.3933566651911074
C -3.28586310448782 1.0612083332365856 -0.527061671943968
C -3.4801013045870945 -0.15640657180557782 -0.05662270585301355
C -2.215706294873923 -0.7394903612892444 0.41017922005085294
H 4.751351038423568 -1.0688297522570092 -0.1571649683746397
H 4.937454094495913 0.428609518292339 0.8819601810164391
H 2.5609313088060235 0.7447836587265367 0.9523262579770667
H 2.5378682597640987 -1.8662977344629383 -0.8409746916370763
H 0.7096821477793406 1.1901340067059742 0.2027643904794201
H 0.35238105974523726 0.02799290774575907 1.5131266384667974
H -1.4105411896731916 2.307980938393746 -0.7104809896477917
H -4.067010145480563 1.7284687283888611 -0.942800652903699
H -4.464368689048816 -0.644924793395885 -0.029144973506804485
H -1.941141589788963 -1.672617170316466 -0.1324014892800907
H -2.207039758492128 -0.9045179997577598 1.5171800653196525
