28

C 5.741771515133748 0.4073906769949325 -0.9116451726526239
C 4.690465728384136 -0.3750231413650816 -0.7621366578212673
C 3.357343790433828 0.19600466659565335 -0.7246133251196837
C 2.2655183802751533 -0.5428942855061106 -0.5765127290574299
C 0.9199070863461474 0.08429085047095666 -0.5435796656929167
C 0.10034046306152723 -0.5855433228378293 0.5387789655671773
C -1.2803536370677258 -0.015024343853848834 0.6463008571398156
C -2.0000297419539788 -0.7587897056442261 1.7538679570382698
C -2.069072755186319 -0.216428827350391 -0.6351447793023001
C -3.0605429667562647 0.9133583256202281 -0.7932137408933805
C -4.433036141283921 0.532423692669067 -0.26458979573368135
H 5.58716665915473 1.469899288570687 -1.0042131476958858
H 6.752946379875175 0.02994378050425612 -0.9455228075052475
H 4.842445066808475 -1.4658051334716264 -0.6666347472831556
H 3.24506030764121 1.264194316262362 -0.8206835517061531
H 2.393793082597974 -1.6140869889716196 -0.4812640187381212
H 0.3714285680110705 -0.08153478523372776 -1.4999852688288116
H 0.6241316522208025 -0.39301727615057136 1.4977155826338246
H 0.053480757278958097 -1.6705766059446205 0.41072630586873354
H -1.2423554499359313 1.081875993518351 0.8633147258045117
H -1.2960079804657376 -1.3567986216195476 2.38202107769694
H -2.454437651230978 -0.01115906314454315 2.4185852689731733
H -2.82195484184932 -1.3996618991219942 1.3368746623238859
H -3.1691518102219627 1.218623426305227 -1.8551211533313339
H -2.749093972138091 1.81460562860892 -0.18980641911796833
H -4.809978057616037 -0.4090087337399126 -0.6995153671257583
H -5.120336295392634 1.3566130199885758 -0.579510322509236
H -4.4394481361240326 0.5261290678464577 0.8495516973841198
