15

C 2.315980495653322 -0.3251818397342244 0.4904679417326496
C 1.4537013978125644 0.6688657251615002 0.39730625274574016
C 0.40229925272634603 0.6545434955759585 -0.6443119157795013
C -0.9854236802907418 0.686742174722349 -0.11433471256398349
C -1.5604528031371443 -0.3192481751817272 0.7684794142744641
C -1.8869952828504963 -0.4230620536744007 -0.6864341921731852
H 2.2649563521181006 -1.151861495126084 -0.18510778439257827
H 3.071850091530872 -0.29451416709876077 1.2547145144178096
H 1.4663017495521187 1.5333667909707422 1.0638343051579484
H 0.5957923951980796 -0.17140350794675396 -1.3613051817510482
H 0.539166529717995 1.5991478761888716 -1.2490928829391454
H -2.426929308787719 -0.00013827710032842088 1.398650385384512
H -1.0054946293966611 -1.1576456902026566 1.2098983166578503
H -1.4095197700783595 -1.2397214723386596 -1.2450909513576582
H -2.83523278976836 -0.05988938421569302 -1.0976735094139876
