35

C -5.141245670461194 -0.2297996545824726 -2.3091100703356022
C -3.876254364356436 -0.47502249162743554 -2.0368527524959776
C -3.394626082212708 -0.6840036717033943 -0.679062447793169
C -2.1504862061287895 -0.9276880830871556 -0.3829561556656672
C -0.9936419025115274 -1.0528763365018246 -1.2034816055465674
C 0.1527770625279202 -0.8373790578791679 -0.5262221102145579
C 1.4595610618073704 -0.9289870662236243 -1.2262491532624398
C 2.639306265073912 -0.4618229690838294 -0.6958320220297889
C 3.621369012664681 0.03598747477321121 -0.14440965870362227
C 3.759442340028666 1.0737487790152045 0.9094687075391307
C 4.932085964251942 1.4157252144721955 1.3423684368994653
C 2.5001337946814313 1.700742465577932 1.546772106446547
C 1.5990225517889056 0.6151542874489289 1.5205105123254932
C 0.33850750928947426 0.09126559779138266 1.812631243885819
C -0.24799253584271597 -0.5583123083988875 0.809882069289851
C -1.6169411329866192 -1.141490105460678 0.9923083366166365
C -2.4941283149424036 -0.3378191746041553 1.919788264349705
H -5.892693087223771 -0.16905208723963733 -1.5492262568596913
H -5.432013671274398 -0.08537626689726209 -3.3294551763142
H -3.1356976769414446 -0.5312704022707079 -2.8246697965882896
H -4.148404662750121 -0.6231653435393529 0.11049290891602954
H -1.1101165394565216 -1.3038346526073297 -2.284564689068791
H 1.3694195811250582 -0.331070650212512 -2.2133148270243326
H 1.5171449480709012 -1.971002206060063 -1.7372834557677463
H 4.630845077622807 -0.33293258951140586 -0.4651375859506908
H 5.020000535383328 2.1685908749386953 2.105958639548627
H 5.820477086204449 0.9672847404457607 0.9593048647268696
H 2.8119789489885534 1.9732953173826584 2.6033236999621874
H 2.312019184032791 2.6561616375482986 1.0592415849489452
H 1.342098015884864 0.8072670687702735 0.34368818946661506
H 2.2297789615622494 -0.2638218854898315 1.6686557257336978
H -0.14635520669442942 0.18527890239021094 2.7581082385080005
H -2.689028432423332 0.6792896726965498 1.5781663960756214
H -3.4886720562594213 -0.8569369654196497 2.006688554232528
H -2.0976703585497485 -0.26612806051771615 2.9579782399887855
