19

C -0.5299656310658587 -2.1358149223873206 -1.1830338981319017
C -0.9193829584202343 -0.9209146587500807 -0.8924202447203475
C -0.045560165194017226 -0.015776235791313056 -0.1617610225273376
C -0.4692903313803984 1.196993871416772 0.11470443598770491
C -1.831539326628179 1.63318537429146 -0.31858054469006697
C 1.2795919654389993 -0.5018934985133913 0.24054171191871984
C 1.6571585323389117 -0.8354162338670774 1.6179544044063092
C 2.1435492268965906 0.4438741444435212 1.0029180562402937
H -1.221801197492455 -2.7826847963226102 -1.7351202339889116
H 0.43358898391383227 -2.54902201917948 -0.9131603531351619
H -1.9039149315607429 -0.5918106808429949 -1.2018286324604408
H 0.11712410476088272 1.9274913260530335 0.6498716076521046
H -1.9370140888819873 1.435019338832976 -1.4161815023584698
H -1.9709965368614741 2.700832572750371 -0.1807313517055043
H -2.632947942908798 1.0992264481196017 0.22968912362451246
H 1.8280508147472563 -1.139173803466926 -0.5299519996387848
H 0.9925176846829241 -0.823080695537043 2.4741220928561245
H 1.7922356508090491 1.3382316891490262 1.5041105905343004
H 3.218596146805371 0.5207327795988176 0.698857760132759
