33

C 5.164597811309613 0.841302482291262 0.23498643768560867
C 3.878457544226931 0.5839120424158387 0.4438963055314704
C 3.554029935274775 -0.5572700707260845 1.2448146549061527
C 2.280857170675809 -0.786109149969986 1.4335067816883211
C 0.9749857238847525 -1.012291400771349 1.480979083450735
C 0.43348886563271233 -1.8231553324340009 0.410445233577314
C 0.0653862887136132 -1.0833729090717577 -0.8177945218150121
C -1.0798724008800615 -0.18311544065986435 -0.8570251267498328
C -1.8101925809360195 -0.023331490510248225 0.2353902675427796
C -2.9756976067285024 0.8724773851283597 0.25052235489775704
C -3.409195961230576 1.5864747241035475 -0.7708474186151943
C -4.582636260775646 2.350162320560012 -0.38285168668366665
C -4.852218886169964 2.0904547294151534 0.8798460977712386
C -3.8706009288452146 1.137490601086713 1.4023995168878745
C 0.7995461119615631 -1.2501307685698337 -1.9007363520278187
C 1.9759738529133826 -2.1497567231906873 -1.9294294446193017
H 5.465626185330388 1.6892424385300915 -0.3615191988405344
H 5.962458121515406 0.235432547267726 0.6376082620854636
H 3.1492578375611577 1.2435216237903075 0.0023874678909460993
H 4.194511862321471 -1.2513884042962737 1.710694670403759
H 0.5219247734032268 -0.5539037886552265 2.3113841707595273
H 1.14501831611508 -2.6316357918539603 0.15408225650641852
H -1.3455143279427584 0.35396386925176354 -1.7514782460628218
H -1.5694602556293817 -0.5449129865200456 1.1388877194370859
H -2.95112365549718 1.599439275826598 -1.761245677788167
H -5.161001003932448 3.034195975421964 -1.0212552095836789
H -5.679288001021929 2.514200235219045 1.4621658522483698
H -3.2473505426168887 1.5387469701912182 2.22867296219692
H -4.374494523545857 0.1959207430453552 1.7331772341871239
H 0.5585814339178218 -0.7231048305756553 -2.8198032226134813
H 2.744280337182147 -1.9147609671889194 -1.1934751226881504
H 1.5823742169030153 -3.192869674745485 -1.7558629491135154
H 2.457290546911059 -2.1858282338055326 -2.9182572530984228
