20

C 3.905362490343995 -0.08796818936221824 -1.1349198980816342
C 2.6893743525835547 -0.008090374149551932 -0.6531365041732207
C 2.0138079961670723 1.2661680340679526 -0.6175275311360784
C 0.7911260466671928 1.3399863010101074 -0.13184433924118638
C 0.1398354492167709 0.12455156033119748 0.36363827892595835
C -1.364987522316963 0.2869712640017563 0.349466821256228
C -2.0667698468507143 -0.9458787716900643 0.8535452624262571
C -3.557712140688253 -0.685492976442623 0.8006631838929792
H 4.392634049490257 -1.047812075891101 -1.1529201881984885
H 4.4263926247965335 0.7935318039081753 -1.5140972135604613
H 2.198929229579798 -0.8829297941515867 -0.28768756815102875
H 2.5287809372073964 2.165414820552414 -0.9976466854104783
H 0.32352026294665265 2.321761897861626 -0.12603267891163122
H 0.514818514937567 -0.23872697958931718 1.3222854599192597
H -1.7021657090497877 1.1616160139847078 0.9117835328139579
H -1.6681548842993343 0.4436057480192179 -0.7159075205475336
H -1.8060790857235414 -1.8529063062222673 0.2903841538928779
H -3.992621609052212 -1.0504056670519815 -0.16789406320483521
H -4.053314630610001 -1.1857780681097487 1.6656772862193547
H -3.7127765253463267 0.3955975988916944 0.9421702112697833
