25

C -4.219158499712186 -1.2966579371895857 1.3692528423250596
C -3.2290328520624363 -1.3765548031243366 0.51105745746663
C -1.9053469529544953 -1.6381159466945618 0.9922163624228725
C -0.9621346129725137 -1.7067489244725065 0.09670418616529293
C -0.048307307103894685 -1.6599249596184444 -0.8614470325173409
C 0.49469825356384156 -0.36922274013613054 -1.134099219097562
C 0.20693766693739954 0.2799966154008412 -2.439611360038026
C 1.250517125491485 0.29066175567172675 -0.2773584577473528
C 1.8033517785005926 1.6110021220200264 -0.5617835120870013
C 2.554386027421841 2.248872067967907 0.30899894014062373
C 2.9013094185303347 1.6867240561444028 1.6432095586611641
H -5.223718786126819 -1.101729723757677 1.041656111703268
H -4.044354588876284 -1.4251544027619545 2.4217464992044015
H -3.461449332043531 -1.2386773952100196 -0.5421734118894591
H -1.5775517533173453 -1.7845736885328516 1.9853254346917628
H 0.14193501168096104 -2.6032159751068518 -1.2873925437854048
H -0.5316181059758958 -0.31913850159518153 -3.033812460324656
H 1.1275503461682854 0.3655460409533491 -3.052544753152755
H -0.2147933193767551 1.2837460760769324 -2.3406732350765185
H 1.4636096405931398 -0.16150501186598218 0.6581960684070026
H 1.577780265829518 2.0525589442111833 -1.511966836730035
H 2.9352266459402063 3.2223490506294636 0.043508544033813296
H 3.717975334756499 0.9408864275543468 1.563325766079793
H 1.9852999673263698 1.1993401936190138 2.084671660606407
H 3.2568886278050737 2.4754164593593315 2.322993390560584
