22

C -4.681171195362169 1.1567654591178596 1.224980011842646
C -3.3949436459469067 0.9185554915310391 1.3234221752855413
C -2.717671519769264 0.09604034555804747 0.3459734125919768
C -1.4127955467946594 -0.14599975676859492 0.44525602730098296
C -0.7104955607278872 -0.9813304887223061 -0.5423620400059841
C 0.6798599570885506 -0.3759401917072259 -0.740940520456183
C 1.4094369177729669 -0.3730568869790624 0.5514803313161218
C 2.697246796779031 -0.14316069416385702 0.5511352814129906
C 3.405336241709032 0.10497569060439187 -0.6844275522475866
C 4.694922159950789 0.3351748879379432 -0.6846349207763119
H -5.210670805702481 1.7724179973935967 1.948702780466538
H -5.300559872708598 0.7612169628258846 0.42415079912677994
H -2.8406449816493042 1.3404833729303742 2.140431133223275
H -3.284035990459576 -0.3202180675242896 -0.4668242904941703
H -0.5611273157527569 -2.0314371305241057 -0.20416322239603424
H -1.2227772518660607 -0.9833646159173282 -1.5342907109477228
H 0.6113399275242525 0.6724657167556132 -1.0830402433195336
H 1.1953788969739074 -0.973428961762355 -1.5220003647684808
H 3.2359282608292803 -0.13819887799004413 1.4764985188067221
H 2.916848950087069 0.11346893676836473 -1.6555677333585659
H 5.230073586373473 0.3371872608670842 0.2642751698373758
H 5.260521991643334 0.5241709903454258 -1.5780540424421348
