34

C 6.7944426744312185 -0.786397900183667 0.15325405749545928
C 5.803380284098275 0.009026433934654835 -0.18815854529553722
C 4.439860141515262 -0.43285528134771567 0.027179570533501722
C 3.4418163961592763 0.38766473856872863 -0.325328742596724
C 2.930016115408351 1.6416152099015038 -0.8776387101624031
C 1.9940901901846635 0.6193968834058713 -0.40924005968769733
C 1.2427280526990685 0.8986962784631044 0.8452808409545421
C 0.2639361693002061 0.1720990386082907 1.319382817255466
C -0.1973565307569123 -1.0310288495044655 0.6300622088805273
C -1.6208310903419216 -0.9809002664248555 0.21278620316929686
C -2.401508636613988 0.039315362649557345 0.43503534516099424
C -3.8055050200545053 0.013654897569420699 -0.010650707278447195
C -4.382518051853647 -0.9863461167425155 -0.6434247393325538
C -5.784276927243324 -0.6379551149853824 -0.918449017330691
C -5.94564609216422 0.709128609648329 -0.3562241627777272
C -4.794998404437475 1.0655802471470344 0.16145307918002225
H 6.633663109555996 -1.7573608340625249 0.5883943579470206
H 7.8254905477418575 -0.479727905836189 0.0026736011443221856
H 6.010445682888341 0.9704665036796183 -0.6196743128187164
H 4.250840821250505 -1.398897966417842 0.46050011515507955
H 2.999794019017791 2.5792102979744427 -0.2584445133295733
H 2.956105912584752 1.8653776501065578 -1.9527337285638282
H 1.4897660625984912 0.02331883025543927 -1.2238154061607416
H 1.5473496582577464 1.8022821889040401 1.419193687033521
H -0.20507363581562615 0.49417645763927054 2.2573212246325585
H 0.4986883210668922 -1.3105766094160365 -0.17037113874620255
H -0.15187704916033878 -1.8646476123044164 1.4027739292871633
H -1.9692342797632871 -1.8699454899065346 -0.29890910254480424
H -2.05751746988173 0.9225938730028909 0.9427350047101842
H -3.888383049220846 -1.9409716458932855 -0.9244518760461305
H -6.037014416419017 -0.6912139991795859 -2.0003034552572276
H -6.398280958859062 -1.3791696172538659 -0.3338625152769077
H -6.871014778953443 1.3120730812993115 -0.36830551004117457
H -4.611377767219622 2.0223186267008426 0.6529571903813507
