24

C 3.8238746155247583 3.127953735400838 -2.521669701981118
C 3.9444075029873304 1.881704703683723 -2.0871465914966305
C 3.067478798005522 1.3264310286085093 -1.1074297114580702
C 2.3228815633640965 0.8576597094408944 -0.2475620031633673
C 1.4311336482859889 0.3239196259971085 0.7548850314051277
C 0.523105280580052 -0.5879228169250832 0.45273111784318076
C -0.35793345049334074 -1.0967969133855313 1.508873522484518
C -0.20399956773229794 -2.5913226159391716 1.6782145845602894
C -1.770991602876715 -0.8076365266188017 1.1531266904243167
C -2.916924890841441 -0.5773379468924869 0.8582792974630791
C -4.287660745563393 -0.3210655414945948 0.5211924892124534
C -4.6520162589515035 -0.06484847515985838 -0.7229225707695723
H 3.0260073658895053 3.72581675465298 -2.1049976046447605
H 4.474904436758967 3.5610001599847556 -3.2579190695898608
H 4.738615961809303 1.2752853196017762 -2.4975123969651687
H 1.522689276427308 0.6930071412356756 1.7804873593449297
H 0.4621480771679557 -0.9293542544583349 -0.5741798053413023
H -0.10604915519478972 -0.6256284412296249 2.4794405889267956
H -0.03604754204947104 -2.858305559853263 2.7220293954372914
H 0.6705831593682559 -2.904977445748094 1.0731721486355474
H -1.0737360216701264 -3.1530016795078297 1.284094473048028
H -5.061106276309913 -0.32997284513945613 1.2746632295868496
H -3.868223370766382 -0.05383182384993674 -1.4975658601816402
H -5.67314080372346 0.12922470760031288 -0.9932725871422428
