24

C -1.9368995423661877 -1.5545845846810478 -0.40339364478747747
C -2.728167646556356 -0.5596906004044456 -0.7144457482702109
C -2.631736260328969 0.8328585435693433 -0.4494849204307003
C -3.6470495400779037 1.6048435414801612 -0.9237096937973578
C -1.616585381149939 1.506727183053916 0.24315558583402958
C -0.6280212601604047 0.836951182601667 0.7168236709341154
C 0.4961433093120725 0.38724310112825544 1.2760722013143886
C 1.5637269872303263 0.22698251047198792 0.3166519030468944
C 2.6588676413325674 -0.6271914060582926 0.9684548359868788
C 3.809016144821735 -0.8355567767520712 0.01944800717692078
H -2.1976460281249928 -2.5940870821429804 -0.7110408229435916
H -1.0204783152117372 -1.5152206572027702 0.13605484606590246
H -3.6456957011938442 -0.9055936543991606 -1.3000425262332236
H -3.6783064752514867 2.660282409758383 -0.7836367225630259
H -4.44755903653197 1.1329557931423364 -1.458608682748673
H -1.5720655921657214 2.5826563092609574 0.4312421527733852
H 0.3899745477086606 0.22668805449530688 2.2996439385806444
H 2.039143630720505 1.2296932918377952 0.13997902588299924
H 1.2631781103183775 -0.21596660411338298 -0.6534227516122348
H 3.007527096048935 -0.06157335915306913 1.8391929667796392
H 2.2532513421466325 -1.636391178803981 1.2228841678025755
H 3.4290640191769644 -1.2650956494186985 -0.9336840516745705
H 4.495836590524831 -1.5563350872105508 0.48216562436761184
H 4.34448135977813 0.09940471954034923 -0.1441343823171282
