30

C 5.183193069686062 -2.833704698407002 3.035330408622448
C 5.008724649618571 -1.844489491594181 2.162702732333707
C 4.225278478236078 -0.7096695611565662 2.5599714621780882
C 4.071473064891518 0.24648397394179647 1.6807795035137
C 3.8929001665747243 1.1025351203652758 0.7084342172773882
C 2.784387591452983 0.8630768792623589 -0.14656355982278182
C 1.6651949609693897 0.34302453124834587 0.31078719702176416
C 0.505818517336431 0.07984366335481125 -0.5230421964314987
C -0.5880027880545143 -0.4375993451653882 -0.0323151703374711
C -1.7805737466142444 -0.7351492269785223 -0.7627054826139035
C -2.6921006756349897 0.19874528195889352 -0.7690938813126929
C -3.5459801430549116 1.2012283704742064 -0.7459063824768802
C -3.360827719362563 2.1554869738569082 -1.7945063992001773
C -4.394479056716888 2.4270757068229596 -2.5888080260748363
C -5.70981585280593 1.7778377604989453 -2.4182640440235157
H 5.7725271193153995 -3.6793968425511543 2.7260803298755825
H 4.744131642500061 -2.796133231406574 4.039136116251837
H 5.459367911485914 -1.9336825215138254 1.1991078119043337
H 3.7454054544453403 -0.53577547702399 3.479439595435538
H 4.621182678748197 1.8730373297303182 0.6946038173649387
H 1.627003459000691 0.10430289224817792 1.3748857402291212
H 0.5576875777714404 0.31882962808068505 -1.5641495528881337
H -0.6211501621165652 -0.6773093107716777 1.0459101054003703
H -2.056729668544776 -1.596431865462947 -1.3100308117609145
H -4.249265910022898 1.1698770683381374 0.038783220980229585
H -2.4280809358578077 2.67255289414051 -1.982749584302064
H -4.3056398256347235 3.151169006237787 -3.408010925924335
H -6.24866664546738 2.2691626987151055 -1.560549446354643
H -5.583077608630719 0.714954087515519 -2.110127018660222
H -6.299885603573302 1.804162252958727 -3.339129776177029
