20

C -4.419135438818108 0.17172453269600382 -0.3525107232579832
C -3.2147464019257965 -0.37668653762339166 -0.1831438935179883
C -2.060739095807929 0.4284765439421361 -0.4316910129298886
C -0.893673177198117 -0.14039122729396775 -0.25599411042841724
C 0.21654822610991126 -0.7690971595387497 0.04316008866534148
C 0.6497238667260118 -0.6626967103715637 1.403612758159395
C 1.9214473268061654 -0.38670846375483847 1.6490981355435799
C 2.9450740536056412 -0.17648731412752464 0.6179692511027431
C 3.493333800280281 1.1852231751870201 0.3778097034383167
C 2.6566156768919233 0.5124808223105232 -0.6569992969693615
H -4.543851875376948 1.2046296169389943 -0.6714227329577134
H -5.338784222191228 -0.37273625846171143 -0.18446300994717227
H -3.1934066670452994 -1.4075747230542213 0.13511639147086843
H -2.0039403255322012 1.432726728341912 -0.7403535449450566
H 0.6431384938200475 -1.2762287079885928 -0.775056490095022
H 0.008543199731640957 -0.7922302397732167 2.269555483569149
H 3.6996882760031857 -1.0149103882389379 0.5690242231743344
H 4.579256713179198 1.302488094539785 0.19142285999310232
H 1.6987652636052653 1.0034692434808283 -0.872951111003408
H 3.1561423071363777 0.13452897278946804 -1.591484869611285
