27

C 7.357356265989905 0.9764719419094157 -0.03932101519939547
C 6.048620792439738 0.8986930374352591 0.09326238419336436
C 5.318702596668594 -0.30732064990705943 -0.33765059453961066
C 4.025764088533659 -0.37238093466800093 -0.20154988959908376
C 2.726618306939758 -0.40742763916887614 -0.2829081842789736
C 1.428258406922976 -0.3593778487647878 -0.3630596262949245
C 0.65298777271705 -0.5102692449634635 0.891138961191568
C -0.7956407550068347 -0.6236677835143987 0.6535361858168456
C -1.5891956571418173 0.39184025288327406 0.4200760624704574
C -3.0014833083757058 0.36884683285042164 0.18003715736640336
C -3.6909831211719215 -0.7317949243262905 0.16726364285083564
C -5.1560851335090945 -0.7619903291659474 -0.08114257593857785
C -5.7021195233378785 0.6225766202640205 -0.3074995247229886
H 7.8751496887469195 1.8608335418163142 0.2788845323305359
H 7.92272912116253 0.16517566849040607 -0.46349196091789296
H 5.489101427161003 1.7186893257788682 0.5204649948657335
H 5.831688964011896 -1.1456887277162677 -0.7669094379603173
H 0.9842958427955804 -0.2146695488149476 -1.3205303791325613
H 0.9231538193644686 0.23471534526980117 1.658209781472794
H -1.2208272741265505 -1.6133518487666583 0.6754800759431157
H -3.508673354102086 1.304970077431707 0.0033152878847175923
H -3.207922840145025 -1.6758896225247681 0.3406115929778889
H -5.704654858199909 -1.2838153516126194 0.7425423694205046
H -5.359465422573503 -1.3490758035727215 -0.9960914945421101
H -6.822678520471373 0.5221022843041259 -0.35029880103331107
H -5.474715718918643 1.3050808228131832 0.548152973714587
H -5.34998160637343 0.9867245062400275 -1.2710896468643984
