14

C 2.3834327194325073 0.07627976605943752 -0.011060346250285994
C 1.3896950284905227 -0.6156603658360928 -0.5422260475468255
C -0.00424095783244908 -0.2802569489834329 -0.23600307934094503
C -1.1486730628611859 -0.8021189840676657 -0.6263613118315943
C -1.9272346152040403 0.16543042561632332 0.17273479911987777
C -0.620376647222688 0.7756592660731941 0.6301165776056643
H 2.170426565574544 0.9063239309697183 0.6626495561745244
H 3.3867440903649344 -0.19078826614782948 -0.25214454812191056
H 1.650125387046296 -1.4288288586565232 -1.203593319602989
H -1.3878711060569187 -1.619250583883712 -1.2779404542754085
H -2.4995976098854524 0.920951925128864 -0.4097576083203053
H -2.5398974063652076 -0.2931284395064593 0.992090982217252
H -0.44394606020308564 0.6193009106953468 1.7145543417795213
H -0.40858632527778704 1.7660862225388363 0.23441822773054083
