35

C 6.149594298102904 1.655509350760917 0.3435501481285763
C 4.936089871832939 1.1903691672424819 0.08824092033159116
C 4.0803776177693285 1.807101553586251 -0.9220148179436722
C 2.8820899888377767 1.3852407136477225 -1.2070280856600237
C 2.2333081932850836 0.21818477943402229 -0.5364589214285733
C 0.7398920431352036 0.23645700189215155 -0.7335366806440137
C 0.14550614367925027 -0.9427968852974251 -0.021305303735536137
C 0.703448395407665 -2.18675457951239 -0.5837039160481711
C -0.0983423812451628 -3.1028323787474372 -1.0971460557681862
C -1.3605635269994298 -0.9725279868037179 -0.13451782417034291
C -1.9748269328081607 0.25147867806460267 0.45144875776118165
C -3.28652593460784 0.3860380770036321 0.3456741780284974
C -4.134260916910506 -0.65355720447397 -0.3393389263455695
C -3.9792248336422875 1.5463270756411778 0.8860655527375921
C -5.273956399440571 1.7036263432939234 0.7950538267290811
H 6.495766641455796 2.510872055613739 -0.21870082347107472
H 6.802147795370534 1.222709717619021 1.080985742510048
H 4.610098232216741 0.33217904519753993 0.6640118170223986
H 4.459157802336328 2.6602771547745934 -1.4644977744265064
H 2.4447517005103623 0.163627184441673 0.5381415210558047
H 2.645592063426513 -0.6917061416784644 -1.0688508845334608
H 0.3582462774754067 1.1864887851445014 -0.2594619154370766
H 0.4741017139801971 0.2435200372264065 -1.8282684810425587
H 0.4592454678017989 -0.8601673814956929 1.0449294594770333
H 1.7884259047671474 -2.39454138236731 -0.5858557950297673
H 0.29168775239674516 -4.03643558628678 -1.5214569801759097
H -1.167272105948054 -2.9992841536206294 -1.135404824687427
H -1.7072643026024215 -1.0618376325014929 -1.1785403407488138
H -1.7259354901836532 -1.8614369936415136 0.41485354074035025
H -5.006914497763014 -0.9249590656275734 0.2719397767387501
H -3.560124595873976 -1.5879816796088797 -0.5067706314663111
H -4.410494365194198 -0.24670785521977986 -1.3311385161843865
H -3.3955009702481775 2.303469194890117 1.3804134898459162
H -5.755975711023094 2.567681476641568 1.2021086985883587
H -5.8623449392982225 0.9523695147667888 0.30332420723243203
