29

C 4.168237980834973 -0.37640735679636783 -4.087812242721619
C 3.6530493544582425 0.07249524544599646 -2.96252858980971
C 2.993815626982529 -0.7675513531370616 -1.9863333968611256
C 2.4881744040084453 -0.24085006845428142 -0.8915295010881552
C 1.8156563634598704 -1.066673948970861 0.12088687357494328
C 0.8152622756865127 -2.093977959525341 -0.32185523437492386
C 0.4182690509961003 -0.8377604752547857 0.44306218325805347
C -0.5723330391610372 -0.09585660605768435 0.9695655627701232
C -1.9161316784143603 -0.602238147373957 0.9102770949374722
C -3.0120861527263947 -0.09165090511821371 1.3260209060262949
C -3.26435570769276 1.1374638413691336 1.976964134760417
C -4.542125158069975 1.404409926580198 2.3084114802377735
C -2.242640366172257 2.136000729185947 2.306057550756828
H 4.651368873927549 0.3099982191898986 -4.775132620021492
H 4.132019697763761 -1.4204749689933969 -4.370042930577961
H 3.728070172190249 1.1448303783306126 -2.7528749725711976
H 2.937609419774162 -1.84659114594261 -2.197152252130548
H 2.568133927123623 0.8186692383217898 -0.7366786208394362
H 2.480225757570331 -1.4747958363409974 0.9457638304867557
H 0.4108498981022506 -2.047555965680347 -1.3539814375099914
H 0.7095516397241818 -3.0425021251516116 0.24461232843864936
H -0.32200746968895394 0.8476349290795553 1.411655737513178
H -1.999860769196492 -1.614904344120556 0.4169341001892108
H -3.937322351095987 -0.7328686106473025 1.1347129520832433
H -5.330204965655372 0.7104694018843342 2.086981800017457
H -4.740482161410637 2.343107819908955 2.790981705321865
H -1.8340894457386137 2.556139456300184 1.374719421557153
H -2.764155264683991 3.024442868913717 2.8044159239642017
H -1.4924999128223404 1.8469977633116421 3.042531083135362
