23

C 3.122232058769507 0.40057491822715696 3.4971238796599806
C 2.441206089411213 -0.28383366317349645 2.5910628932075555
C 1.0259024242905666 -0.3707477126137133 2.724189656691392
C 0.37201947641939354 -1.0508925683769854 1.8192838033383043
C -0.20515569499892689 -1.685436118268112 0.811427396976993
C -0.5386510465374125 -0.8706305979235786 -0.3104255372732304
C -1.3207950662504508 0.18092076954956843 -0.16979904586305083
C -1.6930779114188008 1.0494835245775134 -1.2898812796453973
C -2.623969936265766 0.5973591619479499 -2.295452806231598
C -1.1086749193902607 0.6392119723061029 -2.606020840599663
C -0.13915258412839587 0.4310377992439235 -3.463718254343284
H 2.617261098915925 0.8767626769906387 4.3103527338593555
H 4.191019468463646 0.490979171847177 3.4339826349401616
H 2.969735610222866 -0.7729095984970084 1.7543636713038842
H 0.40235716846681013 0.04634364972234979 3.4680705118883752
H -0.3320968700584369 -2.7151319079338188 0.9902725594697449
H -0.1692740920933984 -1.0795602521669785 -1.3047208891750157
H -1.7098724314850589 0.42245582371961565 0.8081640583298403
H -1.6860484545891794 2.132596806651066 -1.041436680349799
H -3.153595336333132 1.30440318032335 -2.9510439331642306
H -3.03656171556226 -0.44651411191546564 -2.3348816798189573
H -0.2960066206922942 0.058881015559014795 -4.463780211290381
H 0.8711992847861112 0.6446460600078161 -3.1493131053776757
