22

C -3.0858794531049303 -1.3478749354796766 -0.339462653306906
C -2.109503526488171 -0.6220055744479109 -0.8167416254464921
C -1.722964161582126 0.7134595493219057 -0.24975218799094429
C -0.31175931307619315 0.6775559464103416 0.21877267904365158
C 0.2591196799645047 1.9105745392677123 0.8151162733515427
C 0.4332567771496102 -0.4029897395865822 0.12001957992860154
C 1.8358106020426856 -0.4361574068585501 0.58649546961706
C 2.801275882338503 -0.7600976012160962 -0.5306984657841974
H -3.3144901085260887 -2.2995619921551094 -0.7915307558172754
H -3.6859015178917947 -1.0358713620550313 0.5006555465891765
H -1.5172503130839388 -0.9537340036466863 -1.6630478525563335
H -2.42384241181188 0.9840966306579338 0.5452624725834322
H -1.7796820850312942 1.5089729115858954 -1.0259632348488674
H 0.695703767459473 1.7283761767218062 1.8255155291775773
H 1.0473418294178558 2.274200685149012 0.09308745258851248
H -0.4923658703598606 2.707650692135043 0.9501958614934337
H -0.0019127907007025183 -1.283700436819873 -0.31516973283509947
H 1.972682189390034 -1.2480348408316133 1.3536486227746873
H 2.145011204728235 0.4955568543618368 1.091254455536127
H 2.4466843500169038 -0.4589385452853017 -1.52147468212038
H 3.7890840964245376 -0.285821240483267 -0.3007339843281895
H 3.0195811727246786 -1.8656563067458136 -0.5454487676491214
