26

C 5.2389431512919815 0.6642087519682538 0.25166683364952586
C 4.097292369776898 0.11516675901267695 -0.1750484486475519
C 3.6307400815599493 -1.1643082702788907 0.32012645794861894
C 2.5050632595076894 -1.656728668096843 -0.13167093278123923
C 1.737742815122352 -0.9453357349606418 -1.1040865175708618
C 0.4320962045751285 -1.1136338404175568 -1.04379543474871
C -0.8566684016928527 -1.259738404712004 -0.8416876465810046
C -1.4592238853842392 -0.3343604135759211 0.06220989084070825
C -0.8277250997460588 0.11832142541507217 1.3277825303545618
C -2.6502108689322483 0.15447555447657768 -0.2360925598706642
C -3.3873449289986794 1.117414835986039 0.6066127604376698
C -4.763940137763366 0.55978678972061 0.9880062276958536
H 5.810082202028534 0.12132428169363572 0.9839530484839898
H 5.600717849846193 1.600829414499713 -0.0970736643019468
H 3.545547402708498 0.6860408666446057 -0.9119329663636117
H 4.185347099947653 -1.7209120569433143 1.0498928346172056
H 2.0396042333345643 -0.29387130146773616 -1.877899588426503
H -1.2720900911577764 -2.0590449540154205 -1.3876379489481714
H 0.16105516268688602 -0.38031972031069083 1.3909402492530138
H -1.4083078385740646 -0.17322910232680974 2.21866626809985
H -0.648783295287877 1.2174353577282377 1.263692256573425
H -3.5886387042488312 2.0165404032522463 -0.011722355961006707
H -2.8248981573202783 1.4481220317604202 1.4971345534884644
H -5.118183233185569 -0.0642903520253031 0.14873792505597397
H -5.476239687644011 1.3905973191719905 1.1426926472808279
H -4.701977502452439 -0.044490972199283926 1.9232403071185726
