20

C -2.5519368751111737 1.0919291911462636 -1.186253061898893
C -2.9581343161605114 -0.06636156748721227 -0.7101390378412734
C -2.012364948190183 -1.0070916855718859 -0.089943284204202
C -0.628819501744386 -0.4106376441802951 -0.11940984317439302
C 0.387661116872692 -1.3107373769974549 0.49418137018757374
C 1.57110010740804 -0.8253684102267714 0.7849379107079768
C 1.9811501092164714 0.5873979058497516 0.5418238051594491
C 3.419310284870887 0.5750479272295272 0.029263447156502677
H -1.532616193963145 1.4352601516138794 -1.1628374209457437
H -3.25223580427969 1.8047621961398854 -1.653202965600355
H -4.009719107567668 -0.3275847982841622 -0.7784837278435467
H -2.3384296912150098 -1.0901964365157168 0.9912855690377876
H -2.050482317990809 -2.0062081576774156 -0.5792773327452637
H -0.6812219559241656 0.5617064536413526 0.42818340422215667
H -0.38021065923850905 -0.20549364708645093 -1.1799223962644672
H 2.2996535961866975 -1.4989757442801266 1.232599269541002
H 1.3724387212432418 0.982177029151085 -0.3229066271427837
H 3.4607277451124294 0.1567272065665361 -1.004212680558874
H 3.851711442762694 1.602055829047284 0.026961946929587467
H 4.052418247714795 -0.04840842207705118 0.6808487429916956
