29

C 5.172119811617764 -0.4389541358279246 -0.08002341882676732
C 4.17715635678314 -0.25412998554579713 0.7745234047413178
C 2.843563972785234 0.2922666934386259 0.41243785066858335
C 2.825659521145341 0.5631652896254709 -1.0647580968052324
C 1.5528237139623429 1.1363106106885845 -1.5342048630086436
C 0.5128492972328594 0.35798272890626615 -1.390450811872249
C -0.5044314041778806 -0.4270869544749559 -1.1287845712118794
C -1.1162440254161592 -0.2661266876734315 0.18616691040526614
C -1.004593553218024 1.1892461697707417 0.6429011009020487
C -2.557850925961639 -0.555014854802686 0.07037289358350914
C -3.1567431392898953 -1.6960824611267509 0.3165582239141115
C -4.633146757991173 -1.5800927974605252 0.07926594276859195
C -4.776069887138762 -0.16403033794703262 -0.3486181264546836
C -3.575282790389407 0.3872312549280337 -0.34169920158742484
H 5.071713799405871 -0.19466250049721898 -1.1313181044871508
H 6.1314949440120925 -0.8382312819373186 0.21049451558619034
H 4.394160697165402 -0.5383924054665897 1.819389434843767
H 2.7294858478541744 1.2653209170294684 0.9321999132744834
H 2.0668175397884156 -0.4220759315208785 0.743694952030338
H 3.135721655522843 -0.32316580961472186 -1.6642328433156959
H 1.352750368490312 2.0727055569308823 -1.9643440202525775
H -0.746545736232596 -1.0818623219675234 -1.918175513960511
H -0.08878789918831176 1.3687637754509343 1.2296209018612052
H -1.9322129605727865 1.4834769688992817 1.2042335839673621
H -1.0388725315216019 1.7938237864070796 -0.3022305008213677
H -2.7192678240441976 -2.6413418555051282 0.6494056504833796
H -4.964900544975238 -2.2099449406617144 -0.7685843667951924
H -5.72658407508624 0.29290559737774274 -0.6115662035896512
H -3.4247834705620335 1.427995912577094 -0.6209003691843941
