21

C 3.7926833351020353 0.004691594268423755 -0.2103090776558423
C 2.6360377924764355 0.5272404027877566 0.13686801549817634
C 1.4153730200150627 -0.2809650042025401 0.19232015540689326
C 0.2918162537395362 0.27461566086176903 0.5405422025397247
C -1.0055886086181176 -0.42766960610232996 0.635330807656815
C -0.8956495739600234 -1.899962957792016 0.35084963794298135
C -2.056471837754289 0.17932926842661603 -0.2571686656018743
C -2.318340358328454 1.6259111721230795 0.09282016778797814
H 4.671374933639997 0.6283918335867811 -0.24064204544642126
H 3.830536298069045 -1.057585453069428 -0.46070270695176335
H 2.61388040738402 1.5828454410329822 0.38262897671387586
H 1.5121892505369037 -1.3389032357901565 -0.06868388685593269
H 0.2735220589512912 1.3265783594004286 0.7847197746634326
H -0.7293429201837159 -2.132010746220833 -0.7175285843716848
H -1.8943406606028659 -2.3464381868526076 0.6020389870650653
H -0.1656267526147417 -2.3991891966142833 1.0013858656737
H -1.818715657540229 0.05429657283866957 -1.344242631254664
H -2.9993214157088555 -0.3825151082869715 -0.08334183819512035
H -2.101362248174746 2.2411657760470853 -0.8172705372033975
H -3.3793895852785893 1.8199676887052327 0.34082647183773507
H -1.6732637311496774 2.000205724852339 0.8951794590243393
