27

C 3.37180480348548 2.2745706821103875 -0.9131718001435697
C 3.3440949340341497 1.4498375701942625 0.13067822176865254
C 2.2918310877152734 0.41891273759266334 0.31222896344308787
C 1.3666897863844498 0.5427531442271224 -0.8702825061928962
C 0.2627803678421833 -0.2317873803968696 -0.8206163594082537
C -0.4613806884322493 -1.3065598999323764 -0.7042510814674011
C -0.1445349077323385 -2.458252695409822 -1.5602339280756394
C -0.7937201220734009 -3.5968390199901195 -1.5403113626948512
C -1.5352645446225153 -1.3628792518172803 0.2617440500772121
C -1.921552041132144 -0.435075353222371 1.045815582579259
C -1.4927673115177575 0.9256433667146216 1.2736502255770779
C -2.6588262619059924 1.9211765877367815 1.0027223286886644
H 2.621399977105428 2.2355542093173724 -1.6906558288102838
H 4.147830964844333 3.0215768805109335 -1.029744965261136
H 4.132118684568912 1.5438294832996178 0.8781046889284341
H 2.763568478296127 -0.5947432477010474 0.3369807031068724
H 1.7342022028070787 0.5679946094708791 1.264561020175126
H 0.6763086824905148 -2.3584130070119733 -2.256425838077806
H -1.6205998349543895 -3.780297858027659 -0.887140446177157
H -0.5160062763760458 -4.424095983320595 -2.2001977788982843
H -2.100171317460018 -2.3501474193735623 0.3305077139941681
H -2.7952427137397815 -0.7246550513249822 1.7222620530818658
H -1.2023246171417672 1.0937249376954818 2.370996077517093
H -0.6615123453657555 1.3222119219144433 0.7144876047916221
H -3.2649727086034734 1.4757130329477905 0.18928631930235332
H -3.2768958833615836 1.924957672104711 1.9138070431849397
H -2.2668583951560635 2.9052893316861566 0.7251992989895036
