42

C -2.4157415006209084 -4.32391294520626 -0.5441747908887455
C -2.7202453828625495 -3.453196721696253 -1.4893866371900573
C -2.554656949820127 -2.040739350484674 -1.2546048590999652
C -2.8568021533300483 -1.1787630378393816 -2.1921493186995855
C -2.0450927842943227 -1.565410407271895 0.040742838918100474
C -1.8229443682718478 -0.1313345152942145 0.10539787306995278
C -0.6694183944330787 0.4437374211445161 0.3238721291240442
C -0.6326487890711663 1.9239323788283975 0.35759855902186566
C -1.987977775398258 2.577161278090419 0.1930915256513963
C 0.38897097264384434 2.686184260131482 0.5421347286719851
C 0.37887584866825663 4.166730157176489 0.5642989066912034
C 0.7737931407720468 4.697538998998853 1.9376313553872357
C 0.5401651981795897 -0.37707165602880127 0.526734605457761
C 0.5885188620489871 -1.6771314244536466 0.509922745404653
C 2.014989994172171 -2.118215763585626 0.7596977851631033
C 2.7716509028740415 -0.9346683691148501 0.2913060966012419
C 3.8853902712096717 -0.7905174007508315 -0.38066743348621573
C 4.729636300237622 -1.8856156843760463 -0.876795835134592
C 1.9208600743598692 0.20477842514885228 0.7907348571736913
H -2.535501630741012 -5.3821033754327035 -0.7085830342380999
H -2.03687831666829 -4.0327923328238215 0.42861420149210927
H -3.093501115147253 -3.8187995827119696 -2.4356142293333094
H -2.7380122495989325 -0.1017310914131819 -2.033121095744289
H -3.2349224400963204 -1.4556829935647626 -3.164810304225992
H -2.7456985620049252 -1.9314787179425084 0.8341420334585544
H -2.6956354886833216 0.5400291320466205 -0.052958530441066916
H -2.377308798574691 2.3682977941946763 -0.809229955917677
H -1.9600347848462691 3.6494870805677135 0.42932127516184193
H -2.6019305269634794 2.120251652740131 1.025689380838549
H 1.3746937974875675 2.2592544118852955 0.6990968705852181
H -0.4898575470119511 4.680817544738131 0.19625438662054404
H 1.2302392979893415 4.547267838856088 -0.10931704713329837
H -0.17615971495042362 5.067186685850123 2.3949799557449003
H 1.1577117389039056 3.8906212014842785 2.587829382746701
H 1.4670513445600075 5.556667409954092 1.8794774226919229
H -0.17213137296260778 -2.455295159289565 0.3566451061497704
H 2.2585702285278164 -3.0200735516004 0.1683975937353862
H 2.1590182211295113 -2.326250983905581 1.8327351099189901
H 4.35242888809617 -2.323484210166729 -1.8362602896491274
H 5.774648095106298 -1.6176892268837733 -1.0281517386415115
H 4.729408616235876 -2.745942197341961 -0.15212225452800435
H 2.0664788530305342 0.30795702742116776 1.8925442321361603
