21

C 1.8762974804733452 -1.6676207751110317 0.4667244484614158
C 0.6819947110200423 -1.8229656361290525 0.9753517361195907
C -0.3485959462097204 -0.8412359321801144 0.6611662345787823
C -1.5779908752088891 -0.9853286562930551 1.1788399632434483
C -2.4397918611975626 0.09236578889906544 0.7425808461519575
C -1.7561703155356403 0.8816160774342364 -0.027361408369966898
C -0.36428098902798717 0.35834759566608176 -0.15102451434645045
C 0.5046340235967126 1.447195121246094 0.2944374037203478
C 1.254996699218473 1.850792146570227 -0.7061508650771395
C 0.9225166010548167 1.0442527146876799 -1.8702459448740105
C -0.01160199064379149 0.17079896619061727 -1.5733746227930523
H 2.6739351334101555 -2.3959584046774545 0.6881976102681308
H 2.1021999213759446 -0.842964310033303 -0.1619989901645744
H 0.48044154420068974 -2.675084198854927 1.6185638384402004
H -1.9136906689058604 -1.781539935377617 1.8333033437957431
H -3.5092320099397214 0.18691077831639727 1.0448081772836564
H -2.1513438813477985 1.7743714746218655 -0.49671456766287053
H 0.5498521785511651 1.8820729627786963 1.2939453656168558
H 2.0105809018078227 2.6603163667591216 -0.6814834846010557
H 1.422524956100617 1.1973341530857187 -2.834803350013217
H -0.4072756130042673 -0.5336762978287373 -2.294761219862808
