17

C 2.984615257073605 -0.45172712861251707 -0.11412091397452175
C 1.7667043443411867 -0.776706866996758 -0.5153299480745581
C 0.6094801378217862 0.10233422180699968 -0.2279685310697911
C -0.3987996262820646 -0.6330305321109325 0.5858813628046888
C -1.59803451230657 0.20873168129252986 0.9094992394957938
C -2.2431253823174173 0.6322252234594504 -0.3740310189247797
H 3.1241492919682914 0.4663398798898666 0.42763002810111506
H 3.79319815617237 -1.1132823025004543 -0.34154927024500714
H 1.5807487813818804 -1.6747431168679983 -1.054120820590263
H 0.14771215479511038 0.3636524568287447 -1.2216996734613506
H 0.9688870853959045 1.0311818360369467 0.2072029001982363
H -0.01645475435466506 -1.2336848487790795 1.397095048017376
H -2.284214329713811 -0.24101308410421793 1.6249997969899697
H -1.2002184603856216 1.142564605042751 1.4073289377489087
H -1.9228852475603007 1.6512930764399807 -0.6896115676203526
H -3.3546230332456983 0.5807857882301058 -0.3204101531975776
H -1.957139862783813 -0.05492088905535574 -1.2092111343029577
