23

C 4.381419282992567 0.6538145431837744 0.8496519407441238
C 3.3487793223240097 -0.12060940374687408 0.5861326336030537
C 2.478698948945726 0.2504821145032739 -0.5083142185191035
C 1.4607110447846805 -0.5285333146775603 -0.7548416881749702
C 0.3001631496278906 -1.156348687415567 -0.8041714318958594
C -0.7815594130143424 -0.6140026418248347 0.04836532595850834
C -1.8003469870037958 -1.6666665894052484 0.32630932698014947
C -2.9999410319903457 -1.269083155561728 -0.42525793431806197
C -2.8357619128556633 -0.11092081282153265 -1.0468579998088767
C -1.4940601288542894 0.4383226962056329 -0.8000980464109717
C -1.528559882965434 1.7798848460723709 -0.11532437486211887
H 4.61303307662481 1.550102617623497 0.29289679513287886
H 5.03991354357021 0.39376665506838004 1.6602147638539058
H 3.1936007947790306 -1.0020418811595455 1.1985909519146019
H 2.678803600240139 1.1325820420156072 -1.074814159680938
H -0.42483653067700383 -0.1998039886737276 1.0012013131684894
H -1.4147338489262715 -2.6486578850964415 -0.010250073848173422
H -2.0356824749504034 -1.785591417351153 1.4082758515539158
H -3.910759518645964 -1.893321256294133 -0.44258773808918755
H -3.5946586978388995 0.3589979834262034 -1.6528082626278187
H -2.4171050834900396 2.3291606698877882 -0.5417565651432389
H -1.610175603860847 1.6942383723450098 0.9962799710579253
H -0.6469416488164985 2.4142284936972302 -0.3773536203100274
