32

C -5.564614290273615 -0.07200811921829933 0.640944316298545
C -4.594230314670998 0.18701913522641414 -0.20408582140846637
C -3.1938065818632393 -0.04506486795609216 0.11492802416722124
C -2.2386527318205993 0.22301937345166936 -0.7494728867718154
C -0.7862738850148845 0.036426776197668854 -0.5400295051737489
C -0.14228644496052487 1.4331811807985306 -0.48040811705341496
C -0.47999299899051917 -0.6331599561714356 0.7324790350559167
C 0.7784399484895728 -1.020513416351528 1.027300039350323
C 1.9349132603614887 -0.8232181047391983 0.13900375072091162
C 2.9707479080926498 0.011526601432768558 0.7620977310130305
C 3.733341224116267 0.7339227401477144 -0.005041258823218377
C 4.672204912260429 1.2056738851357218 -0.8132872207804708
C 5.769704679492798 0.27314501721982165 -1.1980819977501416
C -1.5530218922038295 -0.9063411965457921 1.6796441043864432
C -2.8085606619242425 -0.6300326810882723 1.3765096697691148
H -6.59863004099077 0.12025673093109181 0.35226572723457467
H -5.437574849630281 -0.4709333207889515 1.6300424124869017
H -4.834052530010984 0.5904481076463555 -1.1822161295233553
H -2.6052781017201023 0.6268804933050318 -1.718190595670754
H -0.3814097203673728 -0.5165418429264158 -1.4211206962152694
H -0.9423966626593144 2.199194821820055 -0.37000127105312014
H 0.37699009945696477 1.652419613222795 -1.4159639674932198
H 0.4973489992484931 1.4577317640075111 0.41223705474919814
H 0.953509036650378 -1.5076905104206022 1.9762313380625982
H 2.344341574356785 -1.797327091643531 -0.23234643751452175
H 1.5824195419633942 -0.29683197890197105 -0.7778185068514604
H 3.097027946968277 0.022255969469138423 1.8132467211934786
H 5.452628896065503 -0.7679373513549601 -1.2720151203351413
H 6.511986125521382 0.32206303662209923 -0.35187462389129887
H 6.312322200052558 0.6107533713372846 -2.0901746136271853
H -1.2743216719624693 -1.3427516135921498 2.6352694539108685
H -3.5528229740323276 -0.875566566271417 2.153484121042685
