19

C 5.503060328319426 -0.4291170994820573 -0.6042052301769871
C 4.385088184878072 -0.14691187605588166 0.0024860608854105947
C 3.136769020686638 0.03779328904913362 -0.724710990039425
C 2.0247081343454885 0.319911694944174 -0.10608609327497065
C 0.8533087173273899 0.39909201268631356 0.44801794644067605
C -0.3238513374154845 0.3562041160671254 0.958449137967279
C -1.5086119540980754 -0.069738158384425 1.3580470494057129
C -2.614123664304483 -0.2232489720858967 0.40775988634751925
C -3.825357933137264 0.12139660949781396 0.8038105856965593
C -4.956663069106188 -0.020019896374621895 -0.12471670016781189
H 6.422221897809261 -0.5638711913829544 -0.05532199163442837
H 5.583780449397913 -0.5455996801464433 -1.6832442340230174
H 4.369195262758696 -0.04401524626379632 1.0762480147549052
H 3.1650972896947636 -0.06969738920847904 -1.8208669561049238
H -2.4390074095036898 -0.6060897419999313 -0.5827564918708934
H -4.0127596782457 0.5040384035590848 1.7879922651157827
H -5.870713043948653 0.4844208074040831 0.2118569810520452
H -5.193852538522023 -1.103767190218819 -0.2354216468930348
H -4.6982886569372155 0.4392137031639972 -1.1173375934802243
