27

C 5.909094417298626 0.6390515918368296 -0.18068576166318218
C 4.6884000001133925 0.4789624529664479 -0.6212663061088379
C 3.5723615996636364 0.91019696615205 0.20613917804003973
C 2.331099601406092 0.7605571550874529 -0.21386579360379596
C 2.069801066233277 0.14947017328133427 -1.5367401539324108
C 0.6351396665394541 -0.1730498813329794 -1.6897789022825156
C 0.011530074382813402 -0.9104716851264604 -0.7967903449852527
C -1.3751429657115655 -1.2595121727773049 -0.8847681126084045
C -2.202805200852281 -0.3927561392011794 -0.35300322182619587
C -2.9747350483363566 0.4683330154653838 0.2910936711302149
C -3.172695483642526 0.20538431406666258 1.6780315031528772
C -4.381443364746541 0.1764313109709627 2.1993759551946064
C -5.627073483050132 0.4015134058793848 1.4516574319585833
H 6.788435110085923 0.33989144069857424 -0.7461059683208577
H 6.106546406723654 1.0841140777895477 0.7833600087550842
H 4.483024891984022 0.028436417819481193 -1.5975970228355987
H 3.742560655427357 1.3586597963445994 1.1752093417088132
H 1.4913225344639454 1.072868725175553 0.3827896572699101
H 2.6229887565510466 -0.8182237576693595 -1.5812926265691096
H 0.08791446838925861 0.19784896259861906 -2.5416818753523853
H 0.5694264579682203 -1.2903037850464085 0.0744543400149682
H -1.8415898859868873 -2.105537664563232 -1.308824432135129
H -3.3337166971370302 1.2367504726514034 -0.33374250508024667
H -2.341277679598443 0.021918765327489483 2.344640071462269
H -5.946983262995237 -0.46179513031606 0.8382665693950906
H -5.49650632788531 1.276730018325444 0.762058185780094
H -6.415676307288694 0.6682650471017476 2.199067113441436
