26

C -6.252672780345559 -0.7478867111795842 1.1661410455006818
C -5.096009232940471 -1.153550479968143 0.6931168517859541
C -3.934986905534367 -0.2896083924245964 0.8345712392708671
C -2.757299758706427 -0.690541588416471 0.3588060058293204
C -1.6285807047778795 0.20442049370696536 0.5230289987063104
C -0.4466048488626617 -0.14431993160950782 0.07151268155037016
C 0.6968121575627736 0.7593683395881776 0.23645398087083475
C 1.8947372866989438 0.42390183914024115 -0.21243473138616356
C 3.010939171551423 1.323087282441317 -0.043167355567883835
C 4.250356184270147 1.112988729781296 -0.44118977458002046
C 4.605992781347621 -0.12119463458862054 -1.1245861023595538
C 5.880718155042972 -0.2679573891405538 -1.5003313837381151
H -7.109856532228251 -1.3870775134277091 1.0610556880187723
H -6.3609980626267895 0.20726930864100046 1.6550774045970982
H -5.016070063866947 -2.1165578125427307 0.2071403049757832
H -4.060783343008415 0.6610676644901424 1.325535703743695
H -2.665425730053501 -1.633679427284833 -0.12040048514625311
H -1.7250481076084585 1.1601487912791182 1.0094789253227363
H -0.34970103736437597 -1.1033146914539806 -0.4166131418538321
H 0.5492130863433233 1.7084587038959205 0.7318785372097311
H 2.0164129303168257 -0.5232231695043201 -0.700735078493896
H 2.843782944461244 2.294623585711612 0.46784155908038455
H 5.0226350442366545 1.8823805500712585 -0.2526548257867493
H 3.8670089100668084 -0.8618944096188716 -1.3071644777195577
H 6.624037649521934 0.48339379345836136 -1.3136290400824477
H 6.141390806501897 -1.1803029310447588 -2.005008607278715
