16

C -3.531945785682455 0.7522108271503881 -0.46141529272286946
C -2.5488200811291724 0.12488638360730486 0.15211468155805058
C -1.5772516393877518 -0.6331111052747811 -0.549479344429537
C -0.6351085746663747 -1.2071172075592251 0.18356658227583733
C 0.38940679720717725 -1.5615590346190642 0.9317727058161426
C 1.4991413298736516 -0.7336889724416178 0.959133375405747
C 2.4924125869819793 0.029682745155555006 0.9964480742174523
C 3.6594767937527357 0.9080769982542718 1.060530519100067
H -4.235381478081627 1.3056329905310438 0.11175185404736336
H -3.596124267121764 0.6850152525592825 -1.5339050016093576
H -2.52205912380143 0.21956760510522327 1.2499932538950385
H -1.463863953669713 -0.8376150428689524 -1.5841716995485946
H 0.20837512732759333 -2.4801154042994913 1.4325496854565452
H 4.59587046402692 0.3269195461931935 1.1937732016261944
H 3.4850967613992214 1.63512623289256 1.874543854641407
H 3.7807750413359447 1.4660881869696192 0.09316546404415281
