26

C -3.0385523218914603 2.3188007345790567 0.028786805867893814
C -2.553655004107725 1.1060514630527738 0.3147444563487988
C -1.2790478243254086 0.6873295300056007 -0.2507251957691617
C -0.7347100104917408 -0.4808840951732969 -0.021793116543028533
C 0.5763711975781834 -0.8319508486759715 -0.6411836488436428
C 1.5894723794222136 0.21696894354545554 -0.4779835370493925
C 2.828249484673776 0.5163278125101136 0.010976152179535919
C 4.096994353863284 0.18543939087753908 0.6994081706092454
C 2.062490268159271 1.5997501467906237 -0.6646524456222884
C -1.3548298029598485 -1.4997495256006956 0.8333174759585807
C -1.6194533710451973 -2.787988229303535 0.03213273459199902
H -3.9724678721182913 2.669030998867112 0.42245701973439703
H -2.4404896670296554 2.9626791176078715 -0.6362624756211118
H -3.1689106914933842 0.5148464384656201 0.9653854648038165
H -0.7442736168848831 1.4067825683007742 -0.913591069629245
H 0.35389758819633055 -1.0800628968067814 -1.706547974558853
H 4.9821889800765 0.2470410558270436 0.023125709416125403
H 4.239550427601593 0.8990270587627188 1.5194497837468077
H 4.084814923318675 -0.848383118925154 1.0967949103633865
H 2.3878555720494186 1.9521266185518198 -1.6414191156071265
H 1.7390892439844723 2.3982399494451445 0.025190012827692967
H -0.7042164147228468 -1.7714338669201335 1.704720705242243
H -2.3392259428838433 -1.243230428115827 1.2564113357120517
H -1.8978616524144998 -2.4279332880354083 -0.9879141645338162
H -0.6605501127229247 -3.3473517967479993 0.021858248127941668
H -2.4327301138321875 -3.3614737328843938 0.4702241440523027
