26

C -5.353783564261196 1.6457413008095478 -0.1487857940796398
C -4.116210862447054 1.1983270372623875 -0.12566277322112446
C -3.785455682169349 0.030303047387330136 0.6375649370991947
C -2.57833562062906 -0.4942033699243348 0.7237292261663834
C -1.3861567845812457 0.03810433508739411 0.050418186087289055
C -0.21987964230863002 -0.8092720098823791 0.46258396791257067
C 0.508372204864099 -1.485718975247446 -0.40594089046989934
C 1.639207194369733 -2.2982390025303627 0.06324870511273048
C 2.8239549977182383 -1.4794335706288575 0.39434497035200816
C 3.1512584559178176 -0.4268322228907934 -0.3032849039863399
C 4.327554660913897 0.34454347685396297 0.06516283872832165
C 4.642592052249908 1.3999078417545372 -0.6466361497898202
H -6.106170533770744 1.1175647998946732 0.4149417058083179
H -5.588060882293771 2.530888576891981 -0.7311767997597626
H -3.3326973215928093 1.7082825945018945 -0.6837881391992819
H -4.564793035329529 -0.47266709898349696 1.1896264763612834
H -1.2009446665266867 1.1077584237467044 0.35907474462269795
H -1.4469809794313946 0.040923810704083095 -1.0450625911672025
H 0.02826669335056208 -0.8635695054012671 1.5131565618922191
H 0.2529670213496018 -1.4283648080068985 -1.4760474761341973
H 1.8770006618067312 -3.165755412650924 -0.5696241637160403
H 3.408114845384278 -1.812939152134839 1.2615565186366025
H 2.5389929320864093 -0.1464567465410454 -1.1461746926117176
H 4.918793677350806 0.04588349650755584 0.905773600993581
H 4.0536281502010985 1.7007456203732412 -1.487174264287427
H 5.508766027777945 1.9744775130475183 -0.3816034117516423
