17

C 3.2111043458159743 -0.5105668471647224 -0.055926132529512944
C 2.100772098670766 0.008238221523920505 0.4257364032988473
C 1.0950669991844137 0.470101308677844 -0.4887368662978605
C 0.012137417198215384 0.9761207183693895 0.022265272052465507
C -1.1199813410549948 1.3287773532158058 0.6160991493226066
C -2.0811660360403867 0.27346227514807475 0.8751485018806983
C -1.8875586129238773 -0.9102431003073823 -0.04420298080988743
H 3.961007996190149 -0.8548834570977004 0.6372876906629096
H 3.39530642628185 -0.6024572786478094 -1.1136110978635902
H 1.9577777100573897 0.08137022109680213 1.4795584951051437
H 1.108560036761878 0.45600544668449644 -1.5535587364935048
H -1.1376219473578786 2.3611296803327475 0.8139624022175561
H -3.120387733245028 0.6589038904669968 0.6659857070704351
H -2.0317550487367764 -0.08338313885525148 1.9084657109257053
H -1.8660406051167426 -0.6154138241174598 -1.114677572313724
H -0.9239815228212709 -1.38832121018346 0.25068368119517453
H -2.673240182863604 -1.6488402591423448 0.12222114898840514
