31

C -5.847773736684655 0.6489356676716677 1.486896553522592
C -4.9850104684482375 0.10993665323166035 0.6493649623341898
C -5.080097506766464 0.38676207736688445 -0.7625545605455759
C -4.22691085801468 -0.14500688600190628 -1.5994205203417788
C -3.159708033308738 -1.0368998460285765 -1.0775615753373267
C -2.1243126424225665 -0.21065307210618378 -0.4711826124896211
C -1.117212718619189 -0.8329153753364817 0.08855586229026076
C -0.11819414770206346 -1.5656910628877405 0.5260317872129984
C 0.9080078046394924 -1.8629475321220337 -0.4124116576864555
C 1.612733295674832 -0.853846280468488 -0.8638699720891445
C 2.321412537943111 0.2058818173193887 -1.167719392380468
C 3.450962661531068 0.49998084244692237 -0.2926471023763668
C 4.435918144130817 1.4238936194609675 -0.8657801650940496
C 5.651190790663133 1.4683446670614106 -0.36054330445931165
C 6.043147296155914 0.6055241722600572 0.7731428376290491
H -5.7997772216078 0.45757445207092234 2.5567391903196235
H -6.608860157029593 1.28640495337286 1.1050670288903885
H -4.209563011081649 -0.5419693798968752 1.0552998106175442
H -5.853969535524881 1.0318533982462113 -1.1295031523552677
H -4.309177615688202 0.06954308950387908 -2.648297883227913
H -3.5993153288903352 -1.7941610812998658 -0.4349461040878334
H -2.056089815143979 0.8377068669396338 -0.4119256887954378
H -0.2210009133288483 -1.8426292297591325 1.5494354002342348
H 1.2138969149262209 -2.8025114096281984 -0.8254067659099765
H 1.9681782128246812 0.7145811121947674 -2.024331506672833
H 3.028165472865924 0.9425714109712875 0.6564261145462371
H 3.9654661810162284 -0.4476735235882731 -0.04078238865564704
H 6.368134156365831 2.149000555681344 -0.7867039321659944
H 5.354174420770404 0.7492212285107619 1.6381673712700766
H 7.0522952234081115 0.8002795282351202 1.1351805687675576
H 5.943290597346412 -0.45109143342220226 0.45880284527827114
