19

C -3.2232193482093585 0.8454336107111395 -0.0025682496210272733
C -2.156278014749749 0.19011759659149405 -0.4237421434336153
C -1.272396462424244 -0.45452521484388714 0.555965196970596
C -0.21737049633016237 -1.3885946070561446 -0.02717418961435928
C 0.14102302759641416 -0.11484369706787864 0.7046130095452904
C 0.8135225781559702 0.9158752325970333 -0.12483973619308845
C 2.1058152100161935 0.8263279201436159 -0.3144776175222957
C 2.874702339568645 -0.2818916022660136 0.28827827640588666
H -3.428668397196966 0.8967355734674184 1.0563508760184728
H -3.9187006842213568 1.3452745673046493 -0.6773277560522525
H -1.9803592515868962 0.15909900381304085 -1.4985500846397415
H -1.7800090479589668 -0.8315438623349473 1.490164556541257
H -0.080171759683734 -1.3977219921205324 -1.1293935764343388
H -0.00034353209525283927 -2.338189612564963 0.5280368071747876
H 0.26499100783201207 1.733011315134734 -0.5728489772878012
H 2.6218572264060973 1.5585811340574842 -0.9111887385697353
H 2.2100674938900693 -0.95760781427123 0.8328423503008452
H 3.4037747201906665 -0.9026378314592463 -0.47480152899436723
H 3.621763390800654 0.19710028016425285 0.98428803736267
