25

C 4.896078077324948 -1.2914692711034916 -0.41018835887549654
C 3.617802034242044 -1.2485221762692826 -0.10524500753239924
C 2.9355555033533363 0.030602382318542145 0.08032494213725772
C 1.6521593670987378 0.0776466614521748 0.3865629722046294
C 0.9878151342029897 1.372836429030685 0.5681666179022554
C -0.008647712242513443 1.6630036562122004 -0.5477471634470065
C -1.0170472149048289 0.6033377517688985 -0.5372790513632937
C -2.212196456440459 0.7849519456544518 -0.010170404078952163
C -3.168467820935031 -0.30946807656065767 -0.032297091154357
C -4.356625420112947 -0.12654482688106375 0.4925646925075984
C -2.7925440120623293 -1.6065758770964402 -0.6420035176542239
H 5.3862924440979745 -2.2329396954461873 -0.5439294212199933
H 5.442057772302261 -0.3771230252202133 -0.5234995623052503
H 3.0597645326623453 -2.1903238154747484 0.01042428564997206
H 3.5192665144643627 0.9278715247293923 -0.042266138026117964
H 0.4603683086453008 1.38971535869624 1.5429379880411036
H 1.754011417887643 2.1939085545826305 0.6266547831853481
H -0.47959620735204156 2.647915234730557 -0.27525008085472497
H 0.4856267768482371 1.8129769081351395 -1.509793783762318
H -2.4322563421868986 1.748261308622583 0.4198224761292955
H -4.605805787136076 0.8217467239092279 0.9284308293424892
H -5.066869814814057 -0.9348518384792651 0.4777610071687927
H -3.096549491306033 -1.5443185400975614 -1.7177447981629534
H -1.6832700313765991 -1.7384862973151252 -0.6538267429183965
H -3.2769215722603247 -2.4741509998986912 -0.15055064254335873
