22

C 4.3478535554548925 -0.027174670152608688 -1.2639678447874167
C 3.4163180829724893 0.06691393788152204 -0.3125683879837912
C 2.283570680639637 0.9222004087569184 -0.4534604883544237
C 1.4253667628162505 0.9524212805108202 0.5219852866685798
C 0.5500089619437889 0.8463587902795686 1.510376619760291
C -0.4545702424425455 -0.19468717241754788 1.3581666467845541
C -1.5849158980862097 0.3821520032172491 0.49405626520375323
C -2.608819739016746 -0.7534471553274447 0.3691141825670588
C -3.786324917588213 -0.32423957750667654 -0.46285462149173306
H 5.196734116524104 -0.6647572659784233 -1.1642766955050743
H 4.217735422192047 0.5649868097648446 -2.1454457881857216
H 3.5400722768371327 -0.5316581442569412 0.5884754305276991
H 2.0337656558030317 1.5540855668918896 -1.2644349830818442
H 0.715041211680519 1.5439862278048586 2.2789225859843802
H -0.05872546014653576 -1.0533123274942102 0.7812537787053926
H -0.8428148933848925 -0.5895920042003681 2.300045278266103
H -1.190105355020314 0.6492248370661565 -0.5069454469990877
H -2.0550944059710683 -1.603261445099233 -0.08997047322897676
H -2.873260430175237 -1.0523553959431473 1.3935465164361527
H -4.668019178241971 -0.22750395256264302 0.22670989280560902
H -3.9772376978026474 -1.1098756762482336 -1.2136865060072644
H -3.626578508984217 0.6495349249989614 -0.9760043905205105
