37

C 5.688474984414871 1.982184015635588 0.5388163299719109
C 5.2854359615238105 0.7453195913717584 0.3176221472602693
C 4.649083373758811 0.44688584001400244 -0.9712718396729544
C 4.235118309205859 -0.770643105834169 -1.228555813645038
C 4.415184873092373 -1.849327236977699 -0.20333107997110716
C 3.5100895329061785 -1.6024981965746004 0.9359544536454728
C 2.2661057155439197 -1.2385003957131775 0.697072933634014
C 1.3692043928381707 -0.993681607353158 1.8101099506634863
C 0.12787122367011017 -0.6312751078190845 1.678913387150395
C -0.5145652878635886 -0.42592406771534075 0.3800111738089772
C -1.7102132508177137 -1.3591752689007106 0.18265748534485363
C -2.2718432277422838 -1.0650684487579052 -1.1463163066688007
C -3.2279909642907736 -0.16376336633804683 -1.3204711732179586
C -3.7973272906365385 0.5970970484647331 -0.25548947119518683
C -5.118315444819163 0.6853315073068392 -0.24816930440774893
C -6.413039467199285 0.7720844833862042 -0.3732565677402582
C -6.894933187140027 1.8858809277679636 -1.1931807279230737
H 6.160605170668235 2.191793064678223 1.5018001180856
H 5.552791176288756 2.752057608927587 -0.2094291202780848
H 5.408728054234034 -0.035856216390947014 1.0439374920261844
H 4.514427207627811 1.2247690443974206 -1.7216042967847665
H 3.7652724717144377 -0.9875520260313423 -2.1821150158734652
H 5.445828937874404 -1.8761899439512117 0.16843144994210676
H 3.8488895751046797 -1.714676918190647 1.9497205379066163
H 1.9417613472231816 -1.1314810505092519 -0.34394434222664966
H 1.770153064491902 -1.1246078245483333 2.835814122962653
H -0.44488570351978274 -0.47798894029377326 2.6068665372022646
H 0.12046085369066085 -0.4685586425568409 -0.4931101457080142
H -0.9750528798267981 0.6111996992763397 0.3803354979992068
H -1.3885621944167583 -2.4218949436477235 0.22776946924175503
H -2.4502833525053234 -1.2111373067683868 0.9907642048775903
H -3.565854719657303 -0.029596333082174464 -2.3428677830262616
H -3.347899412412594 1.1139262514691883 0.5431849805977205
H -6.9598658359754175 0.021426688755662036 0.1351239158901908
H -6.359034900810545 2.8072879713982943 -0.8963550519213145
H -7.990920599509723 2.0002973525525634 -1.0380611344653174
H -6.644898506728329 1.7418558525521124 -2.2830840018030516
