17

C 3.233796527084805 -0.2847453358968645 -0.11906236690792218
C 2.0340337172780307 0.23866664710764843 0.03258281983186302
C 0.8820967596668025 -0.5726186769583435 0.5560031393106741
C -0.17697030615635304 -0.5706858413699354 -0.5103975207326171
C -1.3880513159622367 0.18004215981683286 -0.13073207756976377
C -1.3713834609218658 1.4818447322301318 0.131919647439534
C -2.6671192983408587 -0.5784864487223782 -0.04647016372660521
H 4.024021482177482 0.33451767600424115 -0.4961697577260785
H 3.4246819597687974 -1.309457940452642 0.12753776260075264
H 1.7939184201419411 1.2734209399323069 -0.20450471712743462
H 0.5384442343315685 -0.21380854072525646 1.5333133258644849
H 1.2446555351510307 -1.6103925339494185 0.6917697445055399
H -0.45605443239657056 2.058708792805966 0.0785736943954202
H -2.28150421362398 1.9954889833738365 0.40693655064790374
H -3.50893916932216 0.04149198901845843 0.32037291936019646
H -2.4623457229388923 -1.4569245689966892 0.6148026650455634
H -2.8632807159375235 -1.007062033217877 -1.055494073000599
