20

C -4.785664163399107 -0.10218386016632966 -0.14567152616343285
C -3.478967305064001 0.07536128993727964 -0.40910547342465675
C -2.532205500879607 -0.6774132354950044 0.329895597007898
C -1.269987616718704 -0.49145450173422917 0.06030729892584822
C -0.01764090234913146 -0.16577203321761155 -0.20309874176603895
C 0.5279900516476016 0.9377079717188009 0.5698260120396805
C 1.9912436205686097 1.0033785408674076 0.334304291778575
C 2.716577561689761 -0.10220257658189098 0.2990837384432835
C 4.178594895760844 -0.09742040699791252 0.06812055911330982
H -5.070419126196904 -0.8042115057528991 0.6115379833142561
H -5.549456974181361 0.45611504178934964 -0.6901682957565239
H -3.178012370085529 0.7822798970681547 -1.1727051747318449
H -2.6960057625265303 -1.3945553404624944 1.0980310440364855
H 0.4119958381147732 -0.767413097081502 -0.9554721920116411
H 0.353656776382669 0.8163383868250208 1.646765121888499
H 2.449830276995599 1.964688429057553 0.193104826004987
H 2.2397507488656103 -1.082413140315462 0.44449519279525423
H 4.665642533612926 -0.8749000471453589 0.7122685394772744
H 4.64756051253006 0.8749645433914492 0.3314742716496077
H 4.395516905232207 -0.35089435570426714 -0.9983431063691683
