19

C -3.6061589024372687 1.0601065893367316 0.3200758214205078
C -2.512247144600816 0.37235691582225855 -0.01884892024988662
C -2.1620871503022765 -0.8389049661732276 0.6964818246529124
C -1.0888394986250955 -1.5025904696896866 0.3547489569909807
C -0.23590968739123688 -1.0121055757613422 -0.762943780321832
C 1.131671695466189 -1.4383894398228385 -0.514306549441702
C 1.8802895453772144 -0.6151017368835645 0.18223332196945313
C 2.5684418261719832 0.31413307348949493 0.791240633719947
C 3.2140990238499083 1.3041687325968345 -0.06523999358610943
H -4.250494793976274 0.7263859882602933 1.1338192466626813
H -3.891913503390007 1.9499715140880882 -0.18172212979582913
H -1.9185551501379368 0.7644287678162313 -0.8389304538309843
H -2.7775624624461153 -1.1894970487371244 1.500228360245923
H -0.8387929106604003 -2.414522572127565 0.9046066584357818
H 1.6369795676971433 -2.316593982501948 -0.8063082288206566
H 2.5649072127205987 0.22473965917143415 1.8397124145854742
H 2.5017021599182443 1.808179970546785 -0.7592372225459738
H 3.996676672300515 0.7643051810125973 -0.6687615820644247
H 3.787793500465607 2.0389293995565674 0.5529745121919055
