23

C -5.578766808502645 1.0339293565054073 -1.3469438352733367
C -4.476737468070142 0.43483549636568036 -0.9352327140951188
C -4.287487568850687 0.1619154003774333 0.4540935393222338
C -3.1767688330863746 -0.4320700098431919 0.7933352468307436
C -1.9793748801089739 -0.9353081950733643 1.0449181333338091
C -0.9345843869952793 0.011250423320840882 1.2663990928660844
C 0.30673834286714385 -0.1298658616566684 0.8443068927726237
C 1.543090395496635 -0.534367361760051 0.7778755379855307
C 2.8016642467333708 -0.7394901162297939 0.60870432262791
C 4.064444579151146 -0.9881559398730275 0.7311693950596422
C 5.028636415875601 0.09101031823514706 0.4982870944029029
C 5.30368310994469 0.21955674709775935 -0.9801777486430512
H -5.781683351023449 1.2695707290994218 -2.3946635215269443
H -6.318207574467851 1.3071785596424255 -0.6249161366502287
H -3.763243495926958 0.18034597129338836 -1.7038426890909346
H -4.92351360009557 0.373174574512446 1.271010540426722
H -1.9677483346503912 -1.9892295753169678 1.0442270829501694
H -1.1063512148044656 0.9456187867605722 1.8201083750863318
H 4.466010322345747 -1.9675210276815716 1.0016445641738014
H 4.768305347185758 1.0469090257891416 0.9713521649702914
H 5.969185769571197 1.0531349609099414 -1.2021088457873217
H 4.34146538863341 0.3547436177470494 -1.521987672427441
H 5.7012435987780545 -0.7671658802220641 -1.329669417059509
