22

C -4.066488061920303 0.5073483457437155 1.3909234991470985
C -3.9243347750881763 -0.2598941493381133 0.3214336394213771
C -3.0752189017270477 0.20747943975391114 -0.8032393891953524
C -1.9429008089984081 -0.7191628596413219 -1.0697576606858297
C -0.7335093144480497 -0.4454024033919113 -0.6730275992604096
C 0.387732247433033 -0.26546224142957014 -0.03687616194117869
C 1.5919988905336033 -0.464607638542176 0.4714755393819819
C 2.7898516712874684 -0.4645351732741214 -0.408712916459414
C 3.656884583352033 0.7308414168586072 -0.15993247439746466
C 4.9090620325011 0.5922562223570231 0.2332995920417373
H -4.674949087062241 0.21312063255331584 2.239245457625687
H -3.57116417760398 1.4618212581630363 1.4455063408979916
H -4.44354970717266 -1.220553349389758 0.30552028819999755
H -3.6617167711314873 0.2434650880981664 -1.767993896377028
H -2.7360079944607327 1.2333587162651454 -0.6270878015175374
H -2.1806633369796082 -1.6391055062665858 -1.61484476784067
H 1.7472682084892104 -0.6320590593033216 1.528481860238623
H 2.4753995212267923 -0.4980408354758184 -1.4886179793652063
H 3.4049664469095395 -1.3804750231449419 -0.2598695395530028
H 3.221696734710066 1.7246283984870057 -0.31380866355492726
H 5.314743406679652 -0.3941136375605235 0.3778292611595962
H 5.510899193470244 1.4690923584782478 0.4051315375791358
