48

C 4.276985964071725 -1.5131399984922844 0.004085248599774199
C 3.495250330254372 -0.42283748569391544 0.30415754790237914
C 3.6061992338573803 0.823837055515319 -0.2841934622299993
C 4.601695927769487 1.0437762436160418 -1.3806324275951105
C 2.839593702301088 1.8732079596186062 0.07042681353676378
C 2.969207509721317 3.200516986905749 -0.5699670505567769
C 1.9068593842192225 1.6437991832075503 1.156833511002654
C 1.1662131249245273 2.698989268268913 1.5386096706467736
C 0.10153422392678266 3.480246265319852 1.3807005185704917
C -1.1880442060317877 2.9228692659591444 1.6248566862486948
C -1.214961559545974 2.269255800013148 2.9933437767529205
C -0.9464224125192932 0.9435979225582694 2.869675616506853
C -0.7249333099100995 0.626987111430512 1.4668247131895404
C -1.532124160998888 1.693422142002837 0.807118714921771
C -2.220999618177833 1.3832439789536364 -0.2386059319154334
C -2.3447827817375795 0.026994714748528867 -0.7504451560912009
C -3.1491374549223043 -0.21257822305225105 -1.881804190698007
C -3.295858387676838 -1.5232420616418745 -2.3408598351741152
C -4.159279617985051 -1.791849848543747 -3.5143746796296496
C -4.418201467141344 -2.971893372158139 -3.922814348420419
C -2.6551315868163385 -2.508539306083115 -1.6744580572015422
C -1.857735269038739 -2.3071321352345517 -0.5605173665868981
C -1.2395954489571515 -3.3179612192885037 0.1380260963066107
C -0.4845064034986449 -3.03708481269386 1.280315402904034
C -0.3371483581878633 -1.7495280724086224 1.732965132912328
C -0.9539236094605075 -0.7169654211946951 1.0314462619860714
C -1.7143577423964975 -1.0079829790376678 -0.11425942575953157
H 4.051209214288537 -2.3703274980279883 0.5454033560574332
H 5.019613921483471 -1.4101271151060653 -0.7195680829144572
H 2.6787971332125124 -0.7435487107859554 1.0383844704187752
H 5.571997982884913 1.319366079522687 -0.9374280844414683
H 4.248071315661647 1.816384005992968 -2.113241054989662
H 4.770478214864763 0.06927233942979834 -1.9366842813036964
H 4.0104781949699735 3.385603250150231 -0.8624365743607453
H 2.315861452403221 3.3614386450006744 -1.438135686547716
H 2.703111019922597 3.944030230558648 0.24084926157619932
H 0.2829959985039242 4.48837503035202 1.0796222252071475
H -1.4152146643409063 2.7591319426776084 3.8993116566997497
H -0.9038043072669905 0.23908324185692864 3.6934982691147114
H -2.7303768809105233 2.1959016184014875 -0.7581101193328255
H -3.615775961319602 0.6211190176680328 -2.3347626358412246
H -4.582000237029757 -0.921036852052423 -4.02834036798121
H -4.032446427455339 -3.854221249683142 -3.4492581461925322
H -5.048440524671754 -3.1614426461936165 -4.7859114265503635
H -2.739223185548089 -3.539829271388706 -2.008842534594748
H -1.3221760489600256 -4.339180143453054 -0.18105626179434411
H -0.034092473290944475 -3.884428107593186 1.7680591543040773
H 0.24454025655386824 -1.5255727699176824 2.6199385455681194
