46

C 6.705942468908797 0.7981956050071551 -1.3778423544130605
C 5.42322498388779 0.8820779762817287 -1.084620867530475
C 4.40893352494003 0.8155204809646672 -2.123750793235027
C 3.149868581668304 0.9003090159601412 -1.8147342743064845
C 2.721678636132661 1.0596128028006817 -0.4623619700295707
C 2.321453179530706 -0.040996775136623115 0.14770627273711526
C 1.8482820370216217 -1.1698159075000523 0.6310854531651827
C 0.4339746749495072 -1.4241249133938507 0.3905729990978832
C -0.354651368834589 -0.1801278576700464 0.3690513755435838
C -0.26706534742424115 0.5873981161599914 1.686513647476426
C -0.8261304825349548 1.9519716695559453 1.578659129981292
C -0.30427856160272704 2.8182886517062786 2.418780689422644
C -1.8617720433771272 2.47976204261326 0.6892283672985472
C -1.731909429096683 3.9308439440602525 0.41723801425479223
C -2.8567763392307763 1.869096686266747 0.11625405428754243
C -2.8834139764587374 0.5574072937889823 -0.055135844725933
C -1.7526891423739404 -0.288090282224388 0.040710787944426834
C -2.038891827092927 -1.5290628078100248 -0.2470819981396691
C -2.407860198321452 -2.787293321706598 -0.43763107544534213
C -2.2999320140265844 -3.1321782137278236 -1.8220258943788654
C -2.817097604325057 -3.4896303643383813 0.7435622391652188
C -4.289311915676595 -3.5836214096404744 0.9912230398735281
H 7.445810093698699 0.8513871829201852 -0.5756274533170301
H 6.993889195987519 0.6783804576666616 -2.410477211386069
H 5.108670121992528 1.0017305529191716 -0.06135448596435466
H 4.678049609391937 0.6937192647682201 -3.1773586586934885
H 2.3995603896138444 0.8502632850960692 -2.590621287656573
H 2.663291548135688 1.9119575991519673 0.1523814971740367
H 2.5735875950935347 -1.7483923482067736 1.1357442620184055
H 0.07889739225722857 -2.1612137838327423 1.1366328778481014
H 0.12121114418854964 0.510652977296778 -0.3827985660630902
H 0.7940206865543885 0.6526028262371476 1.9526584331680565
H -0.8067803017645477 0.020693545886074954 2.4924088622561795
H 0.4614862297647384 2.4910818469099674 3.0992221760192113
H -0.5883711575230772 3.8575544833621422 2.483489016641374
H -2.438534882893924 4.446985982293657 1.097980869878175
H -2.061269552611268 4.171362172496477 -0.6357975155380704
H -0.7008538421969893 4.275150703320339 0.49235867954408297
H -3.8517240383582956 0.12569129917406735 -0.2836533899219314
H -2.7219909395256594 -4.151352580684618 -1.9966123935178346
H -1.225607520002853 -3.1240240406658826 -2.1443121402048284
H -2.8865017445631636 -2.4031040099425973 -2.4557090534067547
H -2.2517510072840845 -3.1782934985229807 1.6397980001338657
H -4.615534501498416 -4.603560287862917 1.2938578864841266
H -4.9021795123525616 -3.2862479389566843 0.1190522872582175
H -4.588952842841014 -2.908568122845921 1.8437472790851068
