31

C -5.165593160220798 1.043731809940237 -1.0013872056571835
C -4.085994329354145 0.9133592274396914 -0.2308514757851415
C -3.5943461620768384 -0.40540383633382776 0.23768513380334347
C -2.2298725714438103 -0.591095008862923 -0.2635902065662777
C -1.7144343309454841 -1.728712348770283 -0.67697529631547
C -0.3450963386095809 -1.7294625485967061 -1.1410818083949845
C 0.3343234422884187 -0.6256464978185781 -1.1396186944452287
C 1.745315719058249 -0.4968841981501405 -1.5906546364375391
C 2.4929764131726873 -1.6739623577118812 -1.9592705166318267
C 2.736028843833785 -1.1621813670175025 -0.7068236447060469
C 3.4570487214455317 -1.261556270753697 0.531624295547062
C 3.3426444935224464 -0.44895206475954247 1.5303576771392227
C 2.451705567332 0.6811573018506384 1.5011759177402832
C 2.387197763693522 1.470756553041749 2.578513756450817
C 1.4918973509261237 2.6467723388944293 2.6107483824117734
H -5.488977281629146 2.022304724576197 -1.31994968925046
H -5.7235044194653115 0.17734457889354177 -1.3123568703953414
H -3.5312512257768387 1.7950942612383272 0.07646378204316297
H -4.309255534468316 -1.1710989675480086 -0.1281979651793701
H -3.651554123283108 -0.3960673774610836 1.3457003078768839
H -2.275154331843175 -2.639989394442812 -0.6782379822027913
H 0.1458268296055967 -2.648909187335557 -1.5003828996990067
H 1.9769484772792274 0.5037558267314222 -2.0075419497347817
H 2.762368539797094 -2.450186590492976 -2.6323754420040784
H 4.170653321523728 -2.0975982961651938 0.6510030493241932
H 3.940030190540439 -0.6175043485195746 2.43486753279983
H 1.8378476178630718 0.9164761451503901 0.6231381599220478
H 3.0048242697630134 1.2247555893008775 3.418396304454118
H 1.6494784578698285 3.199649245048795 3.5431322099336837
H 1.739801662106346 3.2918253061667877 1.736083514721859
H 0.4481161274986893 2.25822775244582 2.525106817351971
