27

C 6.409438280144045 0.19956574006997635 1.3055070664042887
C 5.25128040896721 0.5636296654014595 0.8134521612551076
C 4.908460723489669 0.1853334102726898 -0.5480880289372823
C 3.758098392485056 0.5324570748755357 -1.0730943423849106
C 2.5233617279836666 0.5724022455400158 -1.4075290090348722
C 1.3349492777058125 0.6403626807831339 -1.9665732539960046
C 0.30465548573653023 -0.3944702211336691 -1.6860597130259132
C -0.6790013867849595 0.22739878728201132 -0.7742273362426871
C -1.9313982322265764 0.26582466609021793 -1.2057565660254266
C -3.2298198101135887 0.11508038214667787 -1.3546189331227172
C -3.7624658861195583 -1.2524644721159663 -1.0570614442289918
C -4.036596566606744 -1.285458826910492 0.40721523925048825
C -4.445993987625204 -0.18424135758530336 1.062470568962476
C -4.723231830677774 -0.19817903438041065 2.517488274713676
H 7.1099877808851675 -0.3701425881285926 0.7288645593344292
H 6.659792276822762 0.47976032344714986 2.3096411195854447
H 4.5432796835522185 1.13625187931507 1.3882891281542644
H 5.583679722433519 -0.3843059622188975 -1.1552228447512674
H 1.1221383616829597 1.463856612540019 -2.634276381152798
H -0.15014467971100576 -0.7384230205685638 -2.6361495553293395
H -0.4151244699477082 0.6223915290604087 0.17697434233939396
H -3.0224649447870924 -2.0307096553920707 -1.3369129284936219
H -4.721095204255759 -1.4176332850053681 -1.5860305628122484
H -3.916322729498007 -2.1899152750379782 0.9880546879721269
H -4.509818597726378 -1.1747181272903482 2.993739112588178
H -5.820662763581261 -0.02743229791337661 2.6653838877729212
H -4.144981032232691 0.5806030918491595 3.0645207512077834
