27

C -2.973504681398661 0.6198475880570531 3.2141877794714753
C -1.9583100201536088 0.23478813153743702 2.444509294828257
C -2.0739062531614563 -0.9086557829242244 1.6043360598740248
C -1.0344730192615594 -1.2260426221770613 0.8762533306885406
C 0.03131400256598717 -1.4036874119813667 0.10963870282631243
C 0.018100106392777933 -0.7041746119073858 -1.1316754813749976
C -0.3344391995574471 -1.422183386711501 -2.3521655761403135
C -0.6367705737759942 -2.6948081187608506 -2.3176730183566194
C 0.3114504710859023 0.5815852306027428 -1.2489326302056603
C 0.6741053012131445 1.315189367741358 0.014771184790330717
C 1.8880285681916218 2.159790108852094 -0.32353474771099316
C 3.0477274804115813 1.333521554917364 -0.7802025352893435
H -2.9362535399106804 1.4788661193545443 3.8682772515372714
H -3.899976675828664 0.058981033726415846 3.2036773898622246
H -1.0724214510588816 0.8275077449380293 2.49881998507202
H -2.894637502329543 -1.5599734532701057 1.4726037849137537
H 0.7391194025523902 -2.044911101505244 0.5433071850712579
H -0.35292295002267804 -0.9150538562138951 -3.3129812964173575
H -0.6212527723862137 -3.208752419935984 -1.3660395278487498
H -0.8945253302768298 -3.218853283708119 -3.2114631556794744
H 0.29954329900268195 1.1036018522197952 -2.1891736523189835
H 0.9689248085002641 0.5961997656920377 0.8060689481834592
H 1.5940286729201538 2.8508162460233515 -1.136363794627442
H 2.1521092064353122 2.7814512251452 0.5723811212603723
H 3.6471780450604037 0.9039717132299235 0.022759591337493012
H 3.667610988113386 1.9672314658900392 -1.4510217202057627
H 2.6441536166760744 0.4937469011709246 -1.3927677383331354
