12

C -0.5944011888849637 1.0923628415505433 1.779201164059511
C -1.173520290265131 0.9202848321107514 0.61542145705553
C -0.5255652144504668 0.11976323882493951 -0.40954328150515745
C -0.5586522972768699 -0.4100923359195867 -1.6945856702459716
C 0.591220570091116 -0.7036094534514238 -0.8724188784699664
C 1.7640126033808001 -1.2690089945041696 -0.6571673702527341
H -1.0738867146653235 1.6800180528630817 2.5266182529733645
H 0.35275060234776145 0.6445760081764877 1.973732073391203
H -2.1395441974536418 1.3779634642144611 0.4191388411548388
H -1.1436791749034518 -0.4535198964344633 -2.5645320662024114
H 2.262083015102274 -1.1422074775878877 0.29414277437162395
H 2.2391822892851208 -1.8565302801974575 -1.410007299975576
