21

C -2.7273440237872197 0.0006030696937691786 0.6225589258091362
C -2.077375046385353 -0.7461598496120648 -0.2510570944034871
C -0.7331671324967367 -0.4271114285382989 -0.7683465750854994
C 0.1317386265761423 -1.6035307402252605 -0.5608252632593058
C 1.388414801099338 -1.9443305647349598 -0.31862066603938116
C 2.625046113550442 -1.1567864474754073 -0.1289497800548705
C 2.5831678064639823 -0.25411253558552344 1.0133829036536903
C 1.7350511731414353 0.5965505154011467 1.498581056873989
C 0.7946699234867433 1.1551839148544891 0.795576502240945
C -0.20347928900573195 0.817325862411818 -0.19832755014366402
C -0.7692850077327832 1.8755238944426584 -0.7118677355995905
H -2.2620434811580123 0.9004685816765998 0.9897741165383275
H -3.7056751104801067 -0.25253592999077557 0.9845451479476448
H -2.5573559573643054 -1.640198568056018 -0.6061820535140842
H -0.8546031916678747 -0.2774062833563005 -1.8818288413284603
H 1.5149234456933633 -3.0354613264499726 -0.24842226443728457
H 2.9004514731591895 -0.583648456397031 -1.0452541431483375
H 3.4714454983600036 -0.28486158616197016 1.622930979796327
H 0.7442386886734644 2.217173583207422 1.032551562507084
H -0.46593342512977937 2.8472275389656247 -0.3750911575606514
H -1.5328858849966387 1.7960867559299922 -1.465128070792729
