29

C -4.738587459137704 -0.23425295613996228 -1.5539028138984174
C -3.578364524398327 -0.8061519736132391 -1.2031414628782016
C -3.19873129316036 -1.0118517253189014 0.21811581669934788
C -1.9216368730174727 -0.2846834341897417 0.5407758869814279
C -0.78623390983287 -0.7711017767604812 0.9688312864063825
C 0.15529973232016023 0.3172584372318255 1.1378807370043933
C 1.3941483460597075 0.2190594262717033 0.3705946503388097
C 2.134524376921813 1.3120726481579195 0.5160838610487087
C 3.420993267984911 1.8063179944651138 0.03201177545404989
C 4.4567110915419885 1.2013262617402147 -0.47459993617894847
C 4.625232358020491 -0.08668931905208212 -0.35391589522004646
C 3.845071376815127 -1.3165347220485824 -0.4824181681208852
C 2.656656137628812 -1.5300817241267217 -0.9818561719355071
C 1.6082892873205623 -0.9962401892722329 -0.39054009518170374
C -0.5727213425642945 1.53635233008824 0.7503485065054226
C -1.7887292834839768 1.1585128191335183 0.40392360722820225
H -5.394725771514945 0.07490641784927632 -0.7489546816625853
H -4.969291502739874 -0.1066351250243077 -2.600956393381315
H -2.88490211452894 -1.1343275939122008 -1.9533990238804013
H -4.0102470031171515 -0.7042468076189182 0.9108341820487796
H -2.997357168099589 -2.104110697908496 0.34407230004559
H -0.6074094605078192 -1.8111941304906543 1.1563137291841896
H 1.6890887791438636 2.060044975336349 1.1657524451320582
H 3.581439552256175 2.8600490691305938 0.0872688085255197
H 5.650478650578028 -0.30271553675765545 -0.07545016792310913
H 4.34281156985192 -2.202446567741801 -0.09480285388956189
H 0.7026016634092923 -1.5557041968069283 -0.47050654337390085
H -0.23883296082581493 2.5672060725247134 0.7299281306204523
H -2.5755755229237876 1.8458620248534279 0.06362166466371709
