31

C 5.0810844280345755 2.9936542791204857 -0.5346723724821363
C 5.110707022515606 1.7151964436974674 -0.8491404553802046
C 4.159391202324054 0.7732660553107072 -0.287850601632452
C 4.183589382333836 -0.5039567701427922 -0.5976204261925218
C 3.212606131784144 -1.4722871876894212 -0.02629699136262824
C 2.5492400955639294 -0.8628278151415579 1.121712463415638
C 1.4167581546600663 -0.26441912024560943 0.8778873148014943
C 0.23720561986269176 0.21248291937985014 0.5617382348784977
C -0.8817108937101545 -0.7191606767127727 0.6281399167117023
C -1.297492445079463 -1.2634388576317548 -0.6729947488675686
C -2.559012570310554 -1.7084771900515852 -0.7748008914162826
C -3.4989038332708624 -1.6798016084276857 0.2978632148760959
C -4.67761152945009 -1.1576162998318584 0.00859113767181958
C -5.782317489246166 -0.5304492841457527 -0.34014662319239636
C -5.77953465694548 0.9132842145904932 -0.15251276000789357
H 5.807237088754932 3.651459035147103 -0.9770059951090989
H 4.338349265670587 3.354751842539102 0.15255101547819555
H 5.850194816141584 1.3334142476766113 -1.5384252674189483
H 3.402349135013494 1.1182859398228315 0.40739057439938425
H 4.918025273136464 -0.8977150647105733 -1.285501452891279
H 3.7904362279024957 -2.3710735106243015 0.3067670845547203
H 2.8426802743648536 -0.8293144560222392 2.1329390220850253
H 0.2554536171387805 1.2314488999328983 0.29353722297594753
H -1.7661799310430595 -0.14769818365694073 1.0374721319320288
H -0.6996050860777195 -1.5304602321142606 1.3368684568679894
H -2.86104594598748 -2.1087787019244315 -1.7356305381010078
H -3.424611081830213 -2.0034346374600367 1.2979119891275246
H -6.527903839085428 -1.1761464338295027 -0.7150140322659295
H -6.826345600947798 1.2883255056152394 -0.265677931453964
H -5.462953726262344 1.1893991150564818 0.8618233111519994
H -5.110079105955075 1.4520875324738118 -0.8582802169546997
