23

C 3.6691476585306377 -2.1070964338584117 1.4005419887274961
C 3.2012192695359087 -2.5132101747011646 0.23803680243466036
C 1.9706396359683744 -1.9787959917315725 -0.2657866376524526
C 0.9272156569382626 -1.526510248120116 -0.7123898492955125
C -0.34127701351514594 -0.996277468174465 -1.232616793879255
C -0.4210976241568639 0.4222853338643211 -0.8355150050690472
C -1.3595428221995942 0.9634117784012928 -0.08598730399424903
C -2.5098361664326916 0.2500234291254058 0.49841427532773286
C -3.3988300564329936 0.8698323639323163 1.2345221752102873
C -1.1135737685064662 2.3773006461018573 0.09509770610174573
C -0.02514899088760536 2.6924990866586787 -0.5454436492195408
C 0.5229470378238077 1.4877615824111112 -1.1988963270171114
H 4.591858124096414 -2.4862426058936906 1.8125956547421715
H 3.112848769880498 -1.3723296145454535 1.9590929634084766
H 3.7734807855841974 -3.2549614222772005 -0.31350681310622724
H -0.35032601547526404 -1.0937054897427507 -2.3540783822932623
H -1.2041718239097308 -1.597900006384406 -0.8895877211269798
H -2.632476913969212 -0.8103174336700709 0.32165391553682704
H -3.2788478649940678 1.9247569811313936 1.411775743735554
H -4.234520806916507 0.36115208867856224 1.6613636075618794
H -1.7573390093968613 3.053530938162892 0.6832155844809836
H 0.38003187940706157 3.714641865741203 -0.564387521046534
H 0.47760005896961116 1.6201507949966056 -2.3181144136435607
