32

C 4.398415944040783 -1.1890879821140317 -0.764312257844505
C 3.23235052289047 -1.2477564615255128 -0.2372435982111919
C 1.987378303164906 -0.7132721823817262 -0.7220190736890046
C 1.7740850107728052 0.01102723234368694 -1.915136210555365
C 2.547966455108182 0.3897380236106259 -2.8610465930572984
C 0.8709326106981036 -0.9463465285055639 0.09299323160485323
C -0.3913980850024676 -0.4237367814663777 -0.3646312664932128
C -1.4231943844800528 -1.4025802918985302 -0.6661804543060957
C -2.6522660901950936 -1.3802110011787494 -0.17617257499142236
C -2.958457992481635 -0.26186310219680636 0.7398755803004664
C -3.5654885552924998 0.21869455963793377 1.8055865484827185
C -2.950517695190672 1.5643435209533103 1.5252087508228365
C -2.3060442835936215 1.0339258664492006 0.31310399469107975
C -0.8268461015585366 0.8648267563577475 0.23994097839640294
C -0.1615740305388098 1.126981671107877 1.5857230877072748
H 5.204892665666529 -1.7061396886177937 -0.15061768780289753
H 4.736346917236104 -0.7486719785897855 -1.659812433921605
H 3.1369256563565724 -1.8022654367907636 0.7702023388917163
H 0.6789865395865576 0.3202423808419139 -2.059261231697225
H 2.118991572852856 0.9778978553772523 -3.736867040276595
H 3.5926573221930873 0.25992854343261373 -3.013318057556433
H 1.0544650717209643 -1.4845334498809009 0.9703800246517919
H -1.178615270252708 -2.2314678407665727 -1.3539671514179457
H -3.4204819736716265 -2.121270641019328 -0.4030531114988812
H -4.228511691823964 -0.18758563627537866 2.561366262786739
H -2.3225750577847046 1.9561232416195926 2.3394207537616265
H -3.800760312402426 2.289801345132962 1.3618352504156657
H -2.7827278274190297 1.4548171432084476 -0.6167151365104766
H -0.44148599449581516 1.688531925135295 -0.4330741418322598
H 0.9400559666743042 1.0305059230493392 1.4048811313642173
H -0.5264133329886955 0.4594076658036417 2.375009750022611
H -0.33709187978969385 2.1999953491470916 1.8111203059585808
