44

C 6.14292404984567 -1.2959535760721765 4.527286668107214
C 6.352858536033507 -0.47150322243514564 3.536506526745105
C 5.446048730635406 -0.4503865727527003 2.406720730172072
C 4.675197150473246 -0.41456188747405276 1.4634831569183977
C 3.789489743175074 -0.36808243171985916 0.3431984507580657
C 3.757746394223434 -1.2311680241549539 -0.8148976964272819
C 2.914091265575924 0.5823345874508655 0.3839137001066522
C 1.9028119925494047 1.4369649320366504 0.4548645208664146
C 0.7642977337332503 1.0041580241353159 1.2096842755959205
C 1.0258823470054774 -0.11261030547944059 2.1361486950311566
C 0.06600040251098738 -1.0122023257415227 1.9549873377767302
C -0.8400583343615089 -0.5533778514215278 0.9396950827466161
C -0.46081660086329174 0.6473953255479633 0.4639642916226662
C -1.1592171473367523 1.3991554070537346 -0.5817550328385475
C -2.3366004932394007 0.7296066628967106 -1.141354413401065
C -2.6826957984061495 -0.429232508145818 -0.6552612946457286
C -3.8525096543795 -0.8998743259922146 -1.3336823045422355
C -4.350669616417693 -2.126717786351063 -0.920047198474494
C -3.7416889519868124 -2.842644448430678 0.07171435795189257
C -2.53003854483994 -2.366020983199691 0.7604495083834892
C -2.0321318166156495 -1.1946218908116937 0.38419741815604624
C -4.175949121323542 0.06552300293969904 -2.2840327331770554
C -3.2635296750647584 1.1029526100826197 -2.203573218347537
C -3.3393009657869315 2.265039233475351 -3.08844732461497
C -2.168101293889172 3.2425776476403887 -2.990250433962388
C -3.509141598792903 3.621123110499301 -2.515708883589203
H 6.837146773540879 -1.3057754847788474 5.383289517974299
H 5.310610710944537 -1.9663363680776733 4.551196245575696
H 7.204262921461291 0.19702200674914833 3.55080250269627
H 2.716003840451707 -1.5092627924805613 -1.087867951929182
H 4.287611911022026 -2.2152203659060064 -0.636249359411707
H 4.303805580219787 -0.8099300101031731 -1.7063789808464038
H 2.128884472109062 2.3205516491208007 -0.0752964104500928
H 1.8626362654266293 -0.14342626471073497 2.8131262792801732
H -0.00215817318674556 -1.9585449860088322 2.509861086970645
H -1.3342919501745265 2.4576240271292926 -0.29146747763255537
H -5.2484141004780165 -2.5632558916872616 -1.387471851049083
H -4.209821184246027 -3.7758524709528887 0.31310110806407343
H -2.035197421145484 -2.909162000437934 1.544841570737899
H -4.992609687370075 0.07085818830789135 -2.9991828676219257
H -3.674921183347524 2.1138232384309483 -4.155974505955802
H -1.723155565675002 3.6168027943156846 -3.92732730141826
H -3.630098603919127 3.7568900306465993 -1.4302519223557713
H -4.1951933380340325 4.295322296871962 -3.0951077646172447
