26

C 4.659404564579302 -0.519566574216796 1.1816366874401976
C 4.273882064748097 -0.3011336789101023 -0.06389239000858872
C 2.861542955203921 -0.24158030855023296 -0.4034407003933497
C 2.4921373346672375 -0.022507338034608543 -1.6525887084494533
C 1.048347354718245 0.03658367615793293 -1.9894767239604398
C 0.2588854759284347 0.17654752886934522 -0.73710329985312
C -0.7277582207517576 -0.6777382946820368 -0.5187952704338369
C -1.5433949870357184 -0.578745420120471 0.7154117780000641
C -2.9973429780405394 -0.31145921674121724 0.34505910389618566
C -3.8186615389638825 -0.20932426753391234 1.5223053792504546
C -4.006861537672949 1.0444505255959282 1.3815752012082518
C -3.215557002338848 1.1352142900358155 0.18419487823440048
H 5.7125901528443 -0.562120595011811 1.4242575047226094
H 3.9125776309963642 -0.654571910053221 1.9515333089928895
H 5.031195831855965 -0.16432172104158807 -0.8440410900710202
H 2.1215563109188236 -0.3773695891945881 0.3707740058083332
H 3.2077164134877316 0.11701219388183495 -2.448140025014119
H 0.8716736716315088 0.970833541762261 -2.599189475966682
H 0.47611194496733217 0.9567558441494107 -0.010303179152290442
H -0.9515394219886452 -1.4553524865723648 -1.2333680101960738
H -1.43706353687013 -1.4410696417180135 1.3723080285128093
H -3.3625639630282382 -0.9699380152389685 -0.4807588368170335
H -4.208237214011454 -0.8872113334357471 2.3230303159679764
H -4.572745262178969 1.789477364439572 1.9676298597454942
H -3.7979587872943097 1.3721045225078856 -0.7685583056234061
H -2.2879372563721985 1.7750309036555854 0.24030683234139386
