23

C -5.739539552795516 0.01949458353592168 0.5147000053742449
C -4.644993640196468 -0.0162648822865685 -0.21115870214767085
C -3.4274273438753355 0.549659899526359 0.34916279397404265
C -2.3306477631468603 0.5208074503616668 -0.3624280449426551
C -1.0560547551809156 1.055373171834125 0.0934613207536262
C 0.02929471243945759 0.40665519279468265 -0.19961784206955632
C 1.1876221825482278 -0.07933749942767085 -0.5419270553760044
C 2.3443966381642105 -0.4884506476923995 -0.9743096193813039
C 3.5401256627493427 0.353466646565149 -0.7487543903383975
C 4.000426326418032 0.1558388945220025 0.6354438750630149
C 5.209562865700415 -0.30622152540630615 0.8762894648744299
H -5.7163308703673925 0.4591975328357063 1.4939368877884587
H -6.643243894957434 -0.3972736283689721 0.10621668349444266
H -4.658071664383612 -0.45857399671632243 -1.202225678846283
H -3.403649973101953 0.9912805185043775 1.3324184416546494
H -2.3378684730174952 0.07710685391553944 -1.3600932196949442
H -1.0382585636332768 1.9709632159641954 0.6602776007956639
H 2.454740378278286 -1.4264304367312357 -1.493533677002483
H 4.334053524175222 0.17493538468692243 -1.5014209438546036
H 3.2099170988741283 1.415778169395136 -0.8402128794417795
H 3.290522474632853 0.4115349678420201 1.422727413921124
H 5.863508674001077 -0.5401920466711526 0.0590099211063027
H 5.531915956675103 -0.4453974049179412 1.8920376442955262
