29

C 1.3454332521231027 -3.8960439467059342 -1.766143636396402
C 0.5515179535846473 -3.2847491095296975 -0.9329438768700535
C 0.28707717244854336 -1.862403499030496 -1.1279195251492995
C -0.388186137006562 -1.069788183513426 -0.41373587488107133
C -1.098990825924192 -1.4611791852719729 0.8719675704786164
C -0.4543745543487874 -0.5142980132488263 1.9057729942000845
C 0.14125191560524475 -1.0218242532129638 2.9173643669228184
C 0.8255059386749272 -0.3123709218902219 4.031596555581664
C -0.5175629998400217 0.9080104070428331 1.6490558339545536
C -0.5407319894962861 1.325389737627121 0.3808986644375857
C -0.6063878019673115 2.655331853348157 -0.1815506074345413
C -0.5838841788026068 2.4665808426978035 -1.5040909843604007
C -0.6359851526406758 3.6015318379551635 -2.489253291824111
C -0.5000435451786118 1.0551382990884766 -1.8592812628947184
C -0.4746935897346228 0.36529730881378236 -0.7062374920474931
H 1.7918630872356802 -3.2819708429891947 -2.5987965939228883
H 1.602842940999754 -4.903792825409376 -1.7489390763226589
H 0.02039259810497273 -3.805557184625016 -0.16919502275319603
H 0.7755961525746837 -1.4720892908141334 -2.088779734479591
H -0.8008000625492102 -2.4988679926696413 1.1420663659146382
H 0.419689505450809 -0.6562979818750251 4.9964030171844795
H 0.601803210059745 0.7895239053714285 3.927820849480575
H 1.9063623462007564 -0.39704282879158975 4.046447074276711
H -0.5149538721017123 1.610018880830217 2.466320798490395
H -0.6597411387559754 3.60162033408049 0.2939558089088123
H -0.4821821686551069 4.5517236962021705 -1.9810211358223646
H -1.6537954793493028 3.544675880084291 -2.980912897993738
H 0.10541002627525166 3.3908234339565064 -3.281641312793392
H -0.46243260291031607 0.5726096424853667 -2.7992275737885537
