21

C -2.6052968152253064 1.1572896021086099 0.1813716236840453
C -2.2763076935073805 -0.051804844381533176 -0.22169481263340904
C -0.9589074266015546 -0.6548182992509481 -0.10766027107333608
C -0.8578663153911591 -1.9144663867401512 -0.5822883897614219
C 0.40214114139181895 -2.676704052896454 -0.5471426933490546
C 0.24491156126339317 -0.05274217910672675 0.4294588018594758
C 0.8247772781484567 1.1118382257164308 -0.2826016336996896
C 2.0856179782497817 1.6125465732691517 0.4285992509045738
H -1.8443462763934917 1.7669118149442817 0.6387959675051055
H -3.5830783515526843 1.5894816353286487 0.08952158277391575
H -3.120120849973308 -0.6028216258369525 -0.6770305494813981
H 0.6028765409147174 -2.9290607263351762 0.5166067735307669
H 1.2603468158776745 -2.0787809024233144 -0.9760399315169753
H 0.26596083419472505 -3.589027753210171 -1.1624470016886608
H -0.008430015795345138 0.3091430580207778 1.4762699254615295
H 1.025358911535013 -0.8280736053533426 0.6174559378643922
H 0.2085051669980952 1.9734751243938449 -0.4644503030468565
H 1.204031595394189 0.7272871245557058 -1.276587213425635
H 1.982601761469155 1.2573436214882663 1.488063322206654
H 2.147241094974685 2.7177802451386013 0.41523628870974477
H 2.9999830640222913 1.1552033505704071 0.016563325177004547
