32

C -2.6385341584970496 -2.422020869699878 1.5316671029771054
C -3.151717758590955 -1.3038069219334898 1.1331752603499832
C -2.5910547617556747 -0.05057606006161129 0.7064806621426689
C -3.6483449296992276 0.8574734376238333 0.4502141962127619
C -3.3979277442593463 2.2047226512608824 0.003888559080824207
C -1.3564945414086298 0.47005944634190905 0.3467834185559258
C -0.1246375957924889 0.08291917949500963 0.10602923421137962
C 0.39002538533203374 -1.2474621561222736 0.1398271696202924
C 1.6763331650037507 -1.581993108011949 0.04297246307774467
C 2.6398318970583916 -0.5043378741609101 -0.13225915458420803
C 4.054590603745196 -0.7776941236766068 -0.22437305844638147
C 4.534198940644411 -1.9965034331011995 -0.15487034833460914
C 2.2293111592854418 0.7450684367021143 -0.20992338857775614
C 0.8726538592521955 1.2012330925289083 -0.14926234924760767
C 0.448675125733305 1.9940983791370626 -1.3690827695554566
H -1.617316804503639 -2.645305341423831 1.6317635593933786
H -3.361622263744797 -3.2427653065318185 1.7994378736373544
H -4.313636102247246 -1.3078926938900994 1.1107534240141825
H -2.868129554401928 2.8578660084937053 0.7545176167607099
H -2.831428568845605 2.2924358717486006 -0.9491457767118399
H -4.396218734716191 2.6868578592578176 -0.23013656560540766
H -1.417251198919727 1.6472569256836456 0.2366453828247345
H -0.3063598354343681 -2.1044690946178473 0.18123024450027123
H 1.9506679170251306 -2.6290103336714417 0.09763918692646013
H 4.759737567649091 0.025150138584137754 -0.3543653813454016
H 5.597393857753883 -2.218289726185903 -0.22266322902155714
H 3.9078301136711744 -2.862497504248296 -0.025702298807801813
H 3.0189776554016072 1.508642652740489 -0.33329621939342385
H 0.7749446488605494 1.8547689181504758 0.7722412472256215
H 0.17979694336196592 1.2567360158207093 -2.1553311473994112
H 1.3670944365649413 2.532972848765034 -1.7324720308622206
H -0.38138872353318953 2.676362685003682 -1.1872800638872367
