16

C 2.867202255669765 0.387274034392564 1.12206994612
C 1.5688399908049344 0.4492892149802642 0.7810732684414812
C 0.9972303433753618 -0.5492969498157128 -0.09111689657785058
C -0.25838474964744024 -0.5479959907958273 -0.46220892985477224
C -1.0874395449583807 -1.4282167573126028 -1.3273584906423037
C -2.1889261666959485 -0.7503151137494821 -1.1766109294326004
C -1.4673487534508587 0.19373372319175 -0.2983843723871602
C -1.8548699971469702 1.280930053649052 0.3519182227198063
H 3.3353232200204435 1.1088740365367715 1.7686530461438141
H 3.4340836108623036 -0.43223775096911454 0.7131764236158917
H 1.0412645025334013 1.2867682933895248 1.2142366786210295
H 1.6854507764207742 -1.3283515808595123 -0.435535021198761
H -0.7949511277078671 -2.3174993068170715 -1.8665783668280884
H -3.2077981842663927 -0.81785025550133 -1.5260300094262886
H -2.902069402517398 1.6315654060288176 0.28844119396421136
H -1.1676067732956463 1.8333289436519062 0.9442542367215914
