21

C -2.8793526136583676 1.172000351506436 -0.31706437144448335
C -1.8788948359836786 0.6941338777572007 0.4344529582000199
C -0.8643722278197854 -0.2497078788294612 -0.11361646933153757
C -0.9365962056772561 -1.506428937727301 0.7331219823106832
C 0.48398190402010777 0.41996259595162194 0.027329365732105863
C 1.6056332243990767 -0.4329910559775232 -0.49251103707234806
C 2.8936471808553303 0.3402160824071961 -0.2976980292718366
H -2.921294805582293 0.840417733089133 -1.3516263670747062
H -3.5812306786671404 1.8480257570852154 0.12777503819313477
H -1.763318766052734 0.973260658720404 1.4750228944250106
H -1.1289994554453808 -0.45478989628566835 -1.170200265724977
H -1.9498287481956016 -1.942270047373522 0.5888745644165421
H -0.7613731946481652 -1.1783113888567744 1.7835924384066866
H -0.18709148719419338 -2.2384069228751637 0.39124933914594007
H 0.4839162335256324 1.3747905796148427 -0.5000622798022378
H 0.6527026528718158 0.5909785230263451 1.0997131817126147
H 1.635504997149897 -1.432643100938454 -0.06267851984061532
H 1.4934462375428623 -0.5741347855054283 -1.605995135280411
H 2.913405922545252 0.8301489913336102 0.7146817290429887
H 2.9018899278167476 1.1982955095001697 -1.0213567632372347
H 3.7882247381978713 -0.27254664562296205 -0.4430042535053649
