19

C -2.9030547872357446 -2.117006165590845 -0.37340313028440286
C -1.8571718156675392 -1.4288853502885484 0.04527902892025113
C -2.0412201166899333 -0.29891940516604026 0.8803010703052183
C -0.9626398768031961 0.34711259233553443 1.2658669394560509
C 0.15600578826143435 0.9303278861485216 1.5791633415671948
C 0.5858919778308618 1.9385505696308454 0.6347572836337374
C 1.4839825302541592 1.604260974142267 -0.2729270068726939
C 2.0614829052381105 0.2791381592736348 -0.3720191155015003
C 2.9509531461412037 0.00824620895778378 -1.297279166566253
H -3.894751117080489 -1.8161119204246128 -0.07792406092627312
H -2.8105081529947005 -2.9836895667544123 -1.010091274942694
H -0.8891498556412527 -1.7718368575869903 -0.27889061960595857
H -2.931320940924959 0.12817274497966366 1.2580673626896748
H 0.6238535185656268 0.611072139959922 2.470144676350945
H 0.1950621391515652 2.9417554995369666 0.6553611934624691
H 1.8007891401644454 2.3729159727740767 -0.9801053220885967
H 1.748462874767314 -0.4798511093322658 0.32650308292397767
H 3.2982751356378532 0.7276196306698117 -2.0187549609701136
H 3.3850575070253592 -0.9928720032784031 -1.3695701520435926
