17

C -2.245474567584727 -1.2640465244126413 0.22914638636504145
C -1.008647965337719 -1.2116489936576456 -0.19650039421955345
C -0.27348891309576856 -0.02042332128245791 -0.43819385359541313
C 0.9890542159201455 -0.24005900759712262 -0.8738824080148805
C 2.287665646096842 -0.4631465166206198 -0.9663775991352506
C 3.080117322508538 -0.45699685551254615 0.2811431736626468
C -0.664635426669071 1.3236231953395083 -0.2948034200738419
C -1.741867600960853 1.9342890925325715 0.08121204610277047
H -2.9181931025952563 -0.4865390239019817 0.46851639614539387
H -2.6423354396367547 -2.316905881644122 0.35568743198957864
H -0.5311706785148741 -2.2207514178217025 -0.37341481297709256
H 4.140086833516933 -0.27045034766679843 -0.0054562347978417535
H 2.7781442794150943 0.36481949623809695 0.9710990255712103
H 2.999309550805218 -1.390520985793831 0.8542783925182147
H 0.15016829515742044 2.0863721952144014 -0.575860963697373
H -2.68246241428687 1.5735676094989361 0.40407867146416543
H -1.7162700347386093 3.058817287088034 0.07932816269217526
