21

C 3.4218111672619016 -0.34104094942633617 -0.271099620234966
C 2.67895063640484 -0.10166692745933406 0.7741042069197874
C 1.3207239372591486 0.3880831568807148 0.6597369365304043
C 0.5299221147213827 0.6452803354446749 1.680488656005925
C -0.8631057592350772 1.1488490929806812 1.5136073993603827
C -1.4833909601911042 0.3010301236574728 0.42209946491777184
C -2.6503005438052383 -0.26179147619612564 0.2693810994818364
C -2.6550683899525627 -0.968928557178338 -1.0292133517730802
C -1.301410150696411 -0.6975194588368591 -1.5544988679915233
C -0.6066465535012515 0.04400387566508133 -0.7151512441284789
C 0.7660969837868411 0.6215416753017232 -0.6912472288115385
H 4.428628691205302 -0.7032194473848564 -0.21989551063208274
H 2.985903532270698 -0.1592161872863211 -1.2657479187494314
H 3.137108601352526 -0.29119200779660204 1.7577536981630602
H 0.8841490867800588 0.49238114382711634 2.6894809108472106
H -0.7736738681048507 2.159612693539707 1.0510829829085995
H -3.481423732804181 -0.218974184348727 0.9776506048038319
H -3.464585629720496 -0.6270626089631999 -1.700728504159261
H -2.7154398186923525 -2.0802444805239126 -0.8758129065397482
H -0.8586381752276814 -1.030750730280972 -2.5033898466228597
H 0.7003888308884346 1.6808249183845205 -0.9686009602959303
