22

C -5.085347872157135 0.12107080125611609 0.052358452912895405
C -3.9141789472852544 -0.4669251621094068 0.19757407140549177
C -2.6463847627451256 0.28441353737244934 0.14123535753627753
C -1.755181164134419 -0.15859070296129063 -0.9167722027148275
C -0.4682836734564698 0.07176823950572665 -0.7406752693799898
C 0.7863544311627008 0.3034511537700878 -0.4208145842638296
C 1.4314898791858834 -0.7480093074086454 0.3323614826912267
C 2.895386138361291 -0.7254491457117966 0.05955242429121793
C 3.5964610354310373 0.4020258671095152 0.14573899838319457
C 5.04877592450923 0.4699950653389152 -0.11606066687989064
H -6.0123940565290255 -0.4113184206285383 0.09093471404014057
H -5.1115927332645805 1.1872027471043725 -0.11290098268799384
H -3.896270180614611 -1.5366920065110552 0.3630158268514449
H -2.88561984059931 1.3557231677174708 -0.022515621566645796
H -2.1452011079323583 0.18782033328066866 1.1217506595769404
H -1.955257659230559 -0.6457883518101929 -1.825044263733112
H 1.1455616586275699 1.233903896291224 -0.7623541188818196
H 1.1806483637387024 -0.8236812267523816 1.389655588525145
H 3.4477858641154437 -1.6148365778016864 -0.21774165861810965
H 5.2565051247786165 0.7478886339928561 -1.1631414026926252
H 5.532559933440422 1.2685160045439081 0.5087117854888654
H 5.554183644598122 -0.502488545588242 0.07246609569101527
