21

C 4.215501420127461 1.568902738846618 -0.4701149415742932
C 3.4696476125356988 0.5599723377763641 -0.04080913031019829
C 2.0175149295694337 0.6867859222393037 -0.06479812609195208
C 1.249283239446148 -0.3022280968808993 0.3567941925557773
C -0.1976710488251535 -0.1267287159732761 0.3126983755870692
C -1.0040888982962817 -1.074697955827683 0.7181808958584579
C -2.463158858220821 -0.9591399068455013 0.6990028598546756
C -3.0457641565801286 -0.924781609240846 -0.7198806022089492
C -3.1874648082479955 0.22191125779691356 0.22542721456250284
H 5.295285054553082 1.52727774124566 -0.4739436252930988
H 3.7655339478311993 2.4808154457474236 -0.8363246751067563
H 3.897962591601753 -0.3417422957414066 0.3216707252165671
H 1.5688458156246927 1.604104330525124 -0.43333076941657084
H 1.65443791661578 -1.2351574559703296 0.7325620932279143
H -0.620207674783989 0.8021000010240426 -0.06121601504922756
H -0.5825689371530706 -1.995471066059951 1.0867073701587788
H -2.984926549754244 -1.571466644611643 1.4621943931997583
H -2.367956652247419 -0.8190450019783704 -1.568980841757007
H -3.868577485813342 -1.6553667691745988 -0.859107029287836
H -2.624240479280517 1.1240470976778902 -0.004931896647654164
H -4.1873869787021585 0.42990864542521734 0.65693667594798
