33

C -2.311854591161044 4.218722701610148 0.3799279909683393
C -1.1233014282903848 3.6386320224809072 0.38300697460193944
C -0.9757679315746434 2.197145319804465 0.2612504351194411
C 0.2137539193729322 1.6366952587894597 0.26611421371216254
C 0.47786799051782686 0.2152240483780897 0.1515181854376053
C 1.8285426843923958 -0.32042248931108097 0.16597323144345077
C 2.884126306030902 0.46196342811242974 0.2843758209806283
C 4.270128903589308 -0.009165145918862218 0.30621208305895264
C 4.51824266737137 -1.1579579302744731 -0.6449377758384174
C -0.567968068437589 -0.6077301976937507 0.029903701667538866
C -0.6997458998186139 -2.053849147184766 -0.10514063585569156
C -1.994268099152211 -2.3172599418714293 -0.18833754744392459
C -2.597132618365372 -3.6667445632491247 -0.33649301314359664
C -2.75978013676886 -1.0779294389119871 -0.11311971306308385
C -1.906281197990991 -0.07813341529423157 0.015407900136392204
C -2.1777484338697297 1.3620575474757912 0.13130246156207878
H -3.182848529216755 3.585715897390716 0.28330664357170127
H -2.4440891587448395 5.2806919506195165 0.4685419170268616
H -0.2641823394737114 4.307657250958773 0.48229342116879237
H 1.0755580878204232 2.306721996364358 0.36562119025159767
H 1.9940621165783163 -1.3787356648179874 0.07922896936840335
H 4.974552927078561 0.7927539203626398 0.033116215807405674
H 4.522227867441962 -0.362172774221122 1.318960115802454
H 4.122699752317894 -2.1143057398464276 -0.2681691860527882
H 4.098221848074546 -0.9180212411473593 -1.6553908364874628
H 5.618083682384111 -1.23794875391581 -0.787730734969156
H 0.12305961438215407 -2.759408585329299 -0.13011563760539707
H -2.661900177057482 -4.211248948029968 0.6268302554443936
H -3.6260486034194903 -3.5901167329524117 -0.7316233891364574
H -2.009099700060361 -4.280605476053799 -1.048232768339368
H -3.860069700287711 -1.0231364806975842 -0.1589771654602916
H -2.8901335944108535 1.4934592256140005 0.9745091174260132
H -2.668908159252139 1.6674520987601866 -0.8391324411605229
