19

C 2.8988099760919726 0.7760429985097704 0.5353248891837715
C 2.2104018830911754 -0.27267652862664876 0.24334466477342478
C 0.795613968365606 -0.4595707741410094 0.020124806353081864
C 0.2269240158707246 -1.6339886987599104 -0.2800664705587793
C -1.2177753792568176 -1.557010178479406 -0.4567318166503059
C -1.5541777433854884 -0.14999613374282142 -0.23195349173110472
C -2.7521308872276924 0.4082255086146916 -0.2838280185920594
C -0.26443263492860714 0.5300496887701697 0.06913615864758622
C -0.2501858525918759 1.817491915764893 0.31752828423535456
H 2.6378268035090477 1.793520351879031 0.6955417619519088
H 4.006508053077849 0.5894177129843748 0.6463375288267337
H 2.8011557020231006 -1.2346201940965253 0.1374485019886329
H 0.7934478653586033 -2.5781219912639313 -0.3857634540504998
H -1.7764725700002513 -2.1994028228573175 0.2615207182692429
H -1.481579330316305 -1.8436089449031239 -1.5128739430080276
H -3.6044131952735112 -0.21234300500626457 -0.5155657188804706
H -2.932808617743754 1.4440390721341816 -0.10947792346278903
H 0.62420430918757 2.362180057699785 0.5376808751233766
H -1.1609163658512218 2.420371965520002 0.31227264758104584
