24

C 4.279298221424115 0.4184279475439308 0.5078071952456747
C 3.418755272430509 -0.2221245210327661 -0.2710428631866589
C 1.9632636461443214 0.2043232647888395 -0.31831601299268564
C 1.1859014747020251 -0.9956990506153941 0.1276407032298945
C -0.2348536022195019 -0.9075627748829689 0.1922443995610293
C -1.1299789344730018 -0.02762221332292006 -0.08177890984793217
C -1.0006379841278925 1.318110535658672 -0.6044771970621179
C -2.2266517059617077 1.8442042389016187 -0.720552506189842
C -3.191172499557766 0.8585586676300968 -0.27757549015787253
C -2.59183853196552 -0.23074752585702624 0.09684678803125023
C -3.2262947476897823 -1.46504370385367 0.6119285821521889
H 3.926197235458024 1.2582517797359927 1.1157543716925962
H 5.320026537740858 0.1292781577127625 0.5548605652591014
H 3.782466320349547 -1.0476615935582325 -0.8641334903386388
H 1.7698290253946114 0.49523519508171493 -1.3777277804475088
H 1.821651500163744 1.1035873841924682 0.29896291174483236
H 1.6798668683325206 -1.3391112990641962 1.0785818810480197
H 1.4635190560123637 -1.8099646629326556 -0.6186697696026117
H -0.09268284598060297 1.8375326197048063 -0.8655512159317369
H -2.4108393576535505 2.842756963731129 -1.0890320142650356
H -4.278551494845406 1.0761702244046762 -0.2854734762900347
H -2.7442325788935067 -1.8074686139910145 1.5716253850003514
H -3.205898882920447 -2.2940672905992727 -0.12261496744546811
H -4.277141991864166 -1.2393637293766806 0.8880531610978404
