16

C 1.6253850695859047 -2.0659541106176618 0.25326446117461165
C 1.7379507082705608 -0.9445548305923227 -0.43445879886158584
C 0.5731298754644599 -0.04210747834357365 -0.534975845399944
C 0.58324379238105 1.1066266444013877 -1.2014724044620448
C -0.7754921281099413 1.7513576681544332 -1.0832676540751929
C -1.2939159936169002 1.0920610223080673 0.12572511555354365
C -2.0616954964467293 1.6258755216303513 1.0309655586287159
C -0.7599635444989165 -0.27528595078843965 0.08007089540205821
H 2.4338746128459356 -2.747224774470878 0.3547046010119474
H 0.6905230821028914 -2.3347244556801923 0.745689037817438
H 2.66824170947863 -0.712941047446964 -0.9037573175778807
H 1.4163378956901538 1.5255115681041092 -1.7437760631371022
H -2.3829712028723447 1.0313156845015878 1.8892092709297705
H -2.425833314349799 2.64746646572324 1.0099146215356416
H -1.3370170145649964 -0.8928156239695042 -0.6547219311283298
H -0.6917980513598517 -0.7646063029135219 1.066886452589533
