21

C -3.0311842080635403 1.616805222746706 0.18614382915675395
C -2.3010660344369325 0.6727715136509608 0.7390151790381982
C -0.8726951046768568 0.5626375957303092 0.39761722914084935
C -0.4906922049087943 -0.7318226258249326 -0.2086397172127592
C -0.7062465790661605 -1.9469466432881568 0.5545343758233399
C 0.457723147115008 -0.7117994776767387 -1.2782792793016806
C 1.5103774902490759 0.05867036476194213 -1.4029058354909678
C 2.4403200998168697 0.9826334836215751 -1.2550346418236524
C 3.5312713560980735 0.5100426973770048 -0.4282661527528711
H -4.076731297098454 1.7069221200720532 0.4282595177378348
H -2.616159193932681 2.311260023848324 -0.5082798319999663
H -2.775719841402442 -0.005930766281420929 1.4385880896044407
H -0.30780028922934793 0.6423529547572113 1.3743513567543346
H -0.5702578255265291 1.4016036742781774 -0.25929377747204196
H 0.033682804485100144 -2.7259873012466582 0.24297992600414708
H -0.5061746624494927 -1.7528074182823956 1.644807731502316
H -1.7081272789027648 -2.4086187420625573 0.4957309901883031
H 0.3798932038473891 -1.3638080947233575 -2.1070864746250195
H 3.8848923216267064 -0.4822955788686514 -0.7945647570090218
H 4.4200401840961625 1.1920619154868892 -0.5710549035332774
H 3.304653912360065 0.4722550819230985 0.6617495169297521
