23

C 3.7987183653858354 2.9263670753811026 -0.34602241145643337
C 3.059604205456684 1.8314371617442786 -0.19093509915202306
C 1.9124475806209027 1.92647241798865 0.6439427544480206
C 1.1856265421523924 0.8561676210524802 0.7984709613801044
C 0.4633062242050159 -0.2412030300910278 0.8178129127321625
C -0.5225665278009237 -0.3583611988539245 -0.2210077757167897
C -0.43480388682792515 -0.07485458288255539 -1.5065172352662302
C -1.6948516001456722 -0.36148647665575717 -2.1433837810137066
C -2.5779489418047477 -0.820284686880739 -1.2882640144157156
C -1.896282547484106 -0.8570096397767788 0.0239838395485037
C -1.8944576525887815 -2.222075710244199 0.6139584092912186
C -2.797488645199336 -2.634140303390319 1.4754925956059366
H 4.668105692915317 2.8714137790548087 -0.9730944614011503
H 3.57668132851996 3.8647961513391142 0.12022536502653358
H 3.3304529915689707 0.9239747805072388 -0.6808820829842168
H 1.5467426780577402 2.7671692325303825 1.176761488593479
H 0.710074969669931 -0.8969199874605516 1.602229101646134
H 0.45904338640500136 0.3108817986516135 -1.9751344712371035
H -1.8760659971930507 -0.2079889115459464 -3.2175667149018445
H -3.582666403061351 -1.1005717504655446 -1.5350047517840302
H -1.0942350883665655 -2.908606544776567 0.3061080496454155
H -3.58145424667614 -1.9690429217524053 1.7803435124350557
H -2.757982427809325 -3.6261342734703557 1.8753377373540838
