20

C 3.5840605738126983 0.6352837953143634 0.06946587958831393
C 2.286214715750313 0.6631205256758382 -0.11425438997490825
C 1.4186240193308028 -0.27339160464258494 0.5686448694448124
C 0.1169991272236494 -0.24302422092219114 0.3823146650911366
C -0.7639243179410946 -1.180474769402838 1.064353557725158
C -1.9997531531644213 -1.259872246056115 0.6803853929939795
C -2.614330931012981 -0.4724860836013848 -0.4076852410734785
C -1.8713767327339674 0.7700433339718856 -0.7486630956387965
C -0.4307512809449021 0.7713771611400708 -0.54100799376719
H 4.2495811992552746 1.3405050137426648 -0.44327005580715506
H 4.0075199714201215 -0.09236163656250133 0.7355665099494337
H 1.8795984178437004 1.4013671562674246 -0.7872061418723602
H 1.825512778553053 -1.0103755249937265 1.2405905997619517
H -0.3679879740470863 -1.7801625672251133 1.8656126299893492
H -2.657868266190077 -1.9683232185990813 1.1986667963703275
H -2.605535618520051 -1.1243914549034393 -1.3234986864428289
H -3.683776986589754 -0.2517945398261121 -0.20850334022859524
H -2.4119503668179725 1.7043076588358315 -0.5329236470329388
H -0.05231457816077613 1.7615820142692027 -0.18675911447865598
H 0.09145940293286157 0.6090712075148262 -1.5279223974728313
