22

C 4.087672700213707 -0.6195078801885673 -0.9616689024280319
C 3.200996217804814 -0.5370959814639772 0.003912931532091012
C 1.9426047389569443 0.14600320447675924 -0.18359208308569674
C 1.0676626241121283 0.21950215627617714 0.7906638221569099
C -0.23964862462103184 0.9321734334154943 0.5875457494575448
C -1.3665572800076846 -0.06615766202782528 0.8148389722385871
C -1.3797098903964973 -1.2132731291200063 -0.05193501531062141
C -2.515105494223423 -0.910917255820101 -0.5740829322439664
C -2.638434749961594 0.26598596953741926 0.22502493296865345
C -3.585424741647154 1.213132111270487 0.309388787460989
H 3.871165976575232 -0.16773350571275478 -1.91369482978577
H 5.020292780966609 -1.1239032712364043 -0.8278435667786399
H 3.4304646216559704 -0.997387902164489 0.9619967803586598
H 1.7233611915329394 0.606467551515111 -1.1556622420084959
H 1.2828135975402422 -0.23303588946653764 1.7465725276581998
H -0.2708585080517798 1.3167073125013213 -0.4383669906755628
H -0.3777453871381768 1.729845302937505 1.3417614022158937
H -1.462798142354288 -0.26890648967426056 1.9189672609716097
H -0.6943918228361369 -2.0595366041423717 -0.23331954333061752
H -3.154819814931724 -1.402662916933888 -1.3635688545851452
H -4.4397753824250294 1.1294738722808928 -0.31627154407519126
H -3.501764610764239 2.0408275737400907 0.9836590743703749
