23

C -4.457821795041521 0.6152025645035923 -0.7151507278742439
C -3.3663831198151053 -0.011361641378116157 -0.3169736348763288
C -2.791565976924033 0.23609078651661347 0.9981191383558181
C -1.7020675526524265 -0.41857769677449586 1.3396457548421832
C -1.1116027048920538 -1.3487759201809855 0.42325316403272384
C -0.4815096652672543 -0.8229825953708558 -0.618838981763303
C 0.4838014822611995 -0.34883400689555594 -1.383795777287219
C 1.8195947505584105 -0.05124876927430054 -0.8512701462345234
C 2.210558893428134 1.1326137498012814 -0.4265928904494109
C 3.609515039895884 1.0069765457976911 0.02393250806848998
C 3.9576440308393943 -0.40665037158192047 -0.20276266463375342
C 2.9049895309253815 -1.0065616860251059 -0.7119748250875328
H -4.913391404216041 1.3176063773613083 -0.037388859438005705
H -4.905769565920621 0.45226270994040246 -1.6827441831528156
H -2.9137461505096924 -0.7165868412105357 -1.0044167697825834
H -3.27907092351424 0.9504392977563243 1.6520113366480629
H -1.2966061506281155 -0.21131516877335754 2.3299183887893387
H -1.1162074755257458 -2.412108778561808 0.479093881781503
H 1.5788368396695784 2.0172291238927715 -0.42712054230571517
H 3.743439095167176 1.3181947248108814 1.0817653792245938
H 4.2233529882425245 1.6478199850559316 -0.6487022339903394
H 4.929584829441502 -0.8698608663409259 0.01811243111386488
H 2.8744250044774886 -2.069571523068903 -0.9830366829081237
