24

C 3.3652945007274213 -0.3064848376580683 -0.38724661832813906
C 2.382020412123185 -0.7393379881233539 0.27687455013664397
C 0.960302448416921 -0.6219592394996183 0.4532103359113155
C 0.5077401140614878 -1.4805300397958738 1.4556564366366227
C -0.06486515416545116 0.15059605495841524 -0.1452542849721964
C -1.4563210459708207 0.11494458790920783 0.19109289181950717
C -2.271594935859903 -0.4472274101580254 0.9613403335542591
C -3.7889245877333124 -0.04347244784577057 0.8592744025633977
C 0.18471573391845955 1.026336464314664 -1.1253235451777692
C 1.2781698314595455 1.5086206792088384 -1.8693912033764548
H 4.380664048724025 -0.7804952654176982 -0.10180528179635918
H 3.5183818041863923 0.3876434450927378 -1.1502434470665872
H 2.754188988186998 -1.5653996043135003 1.069534737831447
H -0.4325064279188401 -1.616123565818274 1.7973961707845234
H 1.2936826607362757 -2.102908214158226 1.9472245433754063
H -2.0391291620445866 0.8829870769485926 -0.4972735025588999
H -2.2215206865433386 -1.1891090425653497 1.7392240152617633
H -4.027992875746651 0.6127198497667786 1.6875289116522396
H -3.8565528851402964 0.4750570134972252 -0.11152743685216492
H -4.3799228308726335 -0.9748732437178136 0.781014757868038
H -0.8133759311214579 1.519312478800165 -1.434957991134003
H 2.0116448669764866 2.0674078628083703 -1.2524933176636808
H 1.8031776493182905 0.7978744360260526 -2.5375450241386206
H 0.9127234644843933 2.32442094948484 -2.6063104349444117
