18

C -4.266530998683577 -0.5427577221448179 -0.33288457749712386
C -2.9823397092021926 -0.446676575927092 -0.5559592888952432
C -2.332742506922915 0.8067371395464097 -0.866557330628562
C -1.050785356956786 0.8711630526152202 -1.084071245346997
C 0.2597482330246936 0.946513320305123 -0.8798866320815439
C 0.8102053904165548 1.0112953176029658 0.4397283486024702
C 1.7089362666015098 0.0919327064195684 0.71857236008494
C 2.668875874122334 -0.7953436154998039 0.8889955774299146
C 4.004384171963587 -0.36802448402475807 0.49643264562997497
H -4.8952467774468 0.3412618824190205 -0.37649956579032884
H -4.725633109926304 -1.4730761004126807 -0.10607031648048465
H -2.36902899646149 -1.3458069658261718 -0.5073799382422255
H -2.9100749590098887 1.7032431000469324 -0.915877923604914
H 0.6201714592972724 1.67486458330074 1.2352461347179848
H 2.3276313587443123 -1.7085776184150407 1.2926085107857574
H 3.9690771001193146 0.3702845359064714 -0.33831859575822837
H 4.596695138213911 -1.2610821228248055 0.1817894558059945
H 4.566657422107313 0.12404956691243336 1.3315789615420552
