22

C -4.520586154552371 0.29520704846085194 0.5332529931409081
C -3.4314911618040953 -0.06586215177443584 -0.08962876972627144
C -2.1748364428616505 0.6144596293341223 0.14247397654635197
C -1.049839499915578 0.2809579786020648 -0.46672767384395514
C 0.19183927504180745 1.0330082090185702 -0.16819153144656054
C 1.3513747326291314 0.11260050686111452 -0.20771846199205843
C 1.6689005920723583 -0.6215447715528719 -1.4554349782056224
C 2.094721565078273 -0.04511533450877931 0.8759673891604288
C 3.268617287965613 -0.9704844670048663 0.8524673740302673
H -5.471200958813292 -0.20992668057787586 0.3659122321499786
H -4.566569531772214 1.1121469651246318 1.2544428135481123
H -3.4606209084620754 -0.874216810563315 -0.78201133308047
H -2.1452329808060933 1.4511079605485084 0.8592272047226713
H 0.09873365267998375 1.5640463379592928 0.7908075992927918
H 0.2955517636632049 1.7929380987508494 -0.9863239993491175
H 0.7638730436013997 -0.6542580456535317 -2.121850129431707
H 2.4796718098922748 -0.11622814378602608 -2.042246057133683
H 1.933937776438192 -1.683346602404244 -1.2766123119377746
H 1.8886396585402097 0.476833326211805 1.8023063918591302
H 3.087040686237406 -1.8952251387659496 1.4134068480476645
H 4.119305034676631 -0.38625481491852326 1.3068962190613638
H 3.5781707604709387 -1.210843099361397 -0.1653351168049691
