15

C 0.06744746810965435 -1.3189156959946853 2.123896841476166
C 0.6855576521695208 -1.23203126603065 0.9861658895212018
C 0.2634673748022646 -0.24195358534203762 0.006047545100839698
C -0.8690672945051389 0.6907254028967126 0.26232287795546716
C 0.8847712284669652 -0.1433025550815378 -1.1563743880250081
C 0.45099536110100935 0.8641717576421168 -2.146841296108706
H -0.759869813753982 -0.6774381898205489 2.377952008498595
H 0.35356997629340897 -2.0434669174852758 2.8778702595895505
H 1.5036018841494736 -1.877980709650948 0.7544252886527959
H -0.5117656985886151 1.5018417275655986 0.90030577992615
H -1.2806423743925806 1.0536617523049285 -0.699580545879708
H -1.7019587643716365 0.09862539262036303 0.7445247948721555
H 1.1487761666485863 0.9155165002917757 -2.9987109117700825
H -0.5561979649443121 0.5412847149602779 -2.537862665008201
H 0.3213147988133888 1.8692616711243522 -1.6730454861562403
