25

C 4.3468612934296535 0.3947816468111759 -0.13153669299668877
C 3.222582074195586 -0.23085153326056573 0.1393966274236721
C 1.969434214693642 0.06001587939142287 -0.5185576384063901
C 0.8735053512567412 -0.5966463761532608 -0.20899012582426085
C -0.43285521113936926 -0.3240733404022056 -0.8651164029200745
C -0.6161714440137966 1.1580582632730276 -0.8526560234067285
C -1.6811034889856245 1.4051150853725232 -0.141818439878732
C -2.2030780840499182 2.780256048711279 0.11088094455080488
C -2.2845187552399193 0.20619280150925293 0.3630783549993702
C -1.5647824762052978 -0.8302141173162433 -0.051010619193173526
C -1.8563162733617349 -2.2204154754160137 0.2547238834941918
C -1.0889249713964784 -3.195501630354664 -0.19683794174936914
H 4.370799502580451 1.1860213466302927 -0.8929622912684283
H 5.27812436644437 0.17063440220122605 0.3651738144590325
H 3.281074349956054 -1.011756494017004 0.9154872843355827
H 1.903927115806656 0.8188596112213739 -1.275330171676552
H 0.9058320737934407 -1.3703632262706178 0.5524223918500734
H 0.019538755309146994 1.882233688757212 -1.3435388971293813
H -1.8602104793543637 3.1634670107460034 1.09074546323856
H -3.307031174556293 2.7095632579311157 0.09920576789272967
H -1.8792970212145967 3.4673155010153027 -0.7257738413706193
H -3.1850657653838113 0.09881359576429966 0.9882961190835717
H -2.706151805890435 -2.493105640958646 0.8578882733674015
H -0.21565906278020064 -2.9956017665589814 -0.8105206520736945
H -1.2905130838929524 -4.232798538626581 0.020381656282814933
