23

C -4.169874606352444 0.9834516383578092 -0.5128208010359612
C -2.9198020870963206 1.218019485085004 -0.17617726917772364
C -1.9480950251127365 0.14775213464312267 -0.11736119727805976
C -2.369180019748497 -1.2440448216136042 -0.4434005261890739
C -0.7007147574385122 0.3784488609884457 0.21803130389104675
C 0.32822514984009094 -0.6264990804641462 0.3010987795170836
C 1.423438426720802 -0.40114782582730935 -0.3571859589569944
C 2.523505564918626 -0.02152756865526694 -0.9877853406363136
C 3.4643711919742017 0.762148506737556 -0.19684794099565844
C 4.378873624283459 -0.17196508568888183 0.5484357711174951
H -4.474387345784933 -0.03031015995911474 -0.7497521191490426
H -4.875446727064804 1.7915939349024268 -0.5504983545547355
H -2.6058316807641932 2.2349182902142775 0.06355460566501253
H -1.5605313446533728 -1.9570402792001782 -0.19796735856967113
H -2.621341265112656 -1.293533858180105 -1.5042408773160825
H -3.2384296099556886 -1.4922267508558649 0.2190818980017475
H -0.4129492500758201 1.394209571643565 0.45129177198148
H 0.32852142738538725 -1.5471226303131174 0.8338199660263187
H 2.5638932711144338 -0.3434644945277111 -1.9882725881800112
H 2.9825401328739702 1.4779168652359704 0.49845773933732007
H 4.779218723413054 -0.8951730157300785 -0.19438885282760673
H 5.266152866093873 0.3778538842454353 0.9598676685045773
H 3.8578433405419013 -0.7422576010380704 1.3335971523451011
