25

C 5.207979844938097 1.2827177680714166 1.1593686464721218
C 4.237720261455605 0.38648414948141163 0.903725923551741
C 3.5157434922338724 0.46797219400147777 -0.3282753777691719
C 2.5800831407830462 -0.42676346175776736 -0.5325206928892952
C 1.6042495826201164 -1.2929484230595578 -0.5917598302575647
C 0.34794053719345924 -0.888949137772405 -0.03972468276635293
C -0.822265555846006 -1.0115975944234472 -0.6315702498569137
C -2.0703037131382804 -0.5570447029098525 0.034774024033249605
C -2.9526682115299274 -1.7261274756610778 0.3758319707879973
C -2.7173834051642722 0.48662301857540285 -0.7993278568764866
C -4.200389507879126 0.4824439466978 -0.8254364664836813
H 5.769107223254395 1.2482619107460278 2.0766929042126767
H 5.432823465811609 2.0524719894364747 0.4362284876535163
H 4.0564540837743515 -0.35427571672292785 1.6537963246954932
H 3.626033696779903 1.1555823569774393 -1.1110429427063804
H 1.884123500351235 -2.212097193602471 -1.055081387962636
H 0.37284328732439675 -0.44320229970057756 0.9551643818247155
H -0.8680743298285478 -1.4514454820850302 -1.619104187255396
H -1.7933717660644022 -0.08190811609474466 1.015952385914792
H -3.630881893065562 -1.442580535938598 1.2227327636069496
H -2.2690191148418357 -2.5327751922684176 0.7518704554010763
H -3.485812559525781 -2.1486468496552398 -0.48071031992648927
H -4.5828271650707375 -0.04605288521337564 -1.726474157502235
H -4.557442901704731 1.5404610779611052 -0.9263167392706202
H -4.684661992892373 0.08642188301465291 0.08120662337476549
