34

C 5.827820286951649 -1.9801792086956724 0.029794421676321164
C 4.562215460077928 -1.6536910217718974 0.13787360174819213
C 4.014308240902253 -0.667784794594208 -0.7171017722380618
C 2.7480350637368915 -0.372390536058639 -0.5756164800320378
C 1.477534098017779 -0.172332956364203 -0.35423422323920706
C 0.6156117217959216 -0.9369146821392894 -1.053037393654855
C -0.7433773953580579 -0.7085012206892425 -0.7939745444496169
C -1.132404555032168 0.24442913558344523 0.12250617146188703
C -2.412433789500477 0.48111405485479747 0.3869966774361523
C -3.4239698301189847 -0.2926952003304243 -0.3158765001821586
C -4.792275561146162 -0.45815391632869945 -0.430274713384819
C -6.17043718243832 -0.08889252070139263 -0.03688942946402121
C -3.917566548710397 -1.3092115648716947 -1.2652381930818166
C -0.16084974404768052 1.0021013129513259 0.8113362483525194
C 1.171870957469622 0.7721566971819248 0.5516342059478623
C 2.2008246279329655 1.5434089531813064 1.2514006879400121
C 1.8089982497491035 2.994063271295511 1.4428883025863883
H 6.460735837673346 -1.5134582717681315 -0.696918872692873
H 6.23896218092096 -2.7252020454386217 0.6769158550522466
H 3.9713713662252768 -2.1525499854486947 0.8837922184615677
H 4.466071193428968 -0.10022649119686311 -1.4856907673532223
H 0.8514924757194036 -1.686359952170087 -1.7716421649644227
H -1.4995488271512756 -1.2774855875402227 -1.3104422536947615
H -2.6849860578981146 1.2513032341399508 1.1264158693882917
H -6.14092089159012 0.6492062467209255 0.7865762482044094
H -6.72010593385375 -0.993515519541069 0.3214132796769782
H -6.649043897425291 0.37414698487118253 -0.9204438830177105
H -3.8131480621271407 -2.3705286122049136 -0.9463576070504468
H -3.971071056182067 -1.109938328967778 -2.3394548453078197
H -0.5048753935602871 1.739125177542115 1.521508848097909
H 3.201244601971421 1.4454014607973098 0.7883102146993023
H 2.7049631502488434 3.6372990727390966 1.545124367917884
H 1.1895789703573507 3.1151119798531517 2.3499203650207763
H 1.2253762429607213 3.3211448351100543 0.5460073500748346
