15

C 2.5758148399722955 -0.5096888239589005 0.8637069508999139
C 1.962220671636175 0.1588778318405798 -0.07910876036969258
C 0.5145607455996303 0.1697146477803411 -0.2039822089196642
C -0.30047344013212884 0.7598121781460312 -1.056989623659368
C -1.4603763557816705 0.21164753798714914 -0.41074295986724946
C -2.7733477303384757 0.2420795107876408 -0.5516387427104307
C -0.5659913259927156 -0.46475440491235553 0.5640818946191166
H 2.02685289308177 -1.0826383764255405 1.5897660953067831
H 3.6451144843919097 -0.4921923625064469 0.9217650435368424
H 2.5872800506433666 0.7231255330806838 -0.7876864530736133
H -0.14927618138701748 1.4172977644117337 -1.9266621042353567
H -3.451637109186199 -0.2858757635690025 0.10423759151966061
H -3.242401785265144 0.8115942711078211 -1.3507324009521224
H -0.6141922954946282 -1.56807451403024 0.521361871857988
H -0.7541474617471166 -0.09092502973950128 1.576297294594905
