48

C -6.797989135800173 0.6102032844924435 1.3248856806811105
C -5.895724113897446 0.8833120678663643 0.40140999522823695
C -6.076578651214499 0.47421425228870623 -0.9550307556054584
C -5.139977119062987 0.782355980620383 -1.8057121775580127
C -4.090820674922144 1.035871897022298 -2.5747995489044753
C -3.0568564743905804 0.022130975921489302 -2.592239821399474
C -3.5186596620673645 -1.2824495276315948 -2.1320313651554894
C -2.872701547891656 -1.5726076368592603 -1.0181775559204822
C -3.0074559160915 -2.8110970057739224 -0.1708432950531042
C -1.9385508562844718 -0.5073969814769446 -0.6434647098751818
C -1.2412873819420922 -0.21527061852494705 0.440248148324901
C -0.3539677118762481 0.9889721005177325 0.4923985473424964
C 1.00473237486947 0.7192183498721282 0.06630891026372412
C 1.9440261166940525 0.914161466611596 0.9786110415145203
C 2.7872629589454996 1.0329163420045009 1.9826642386417983
C 2.979323789408157 -0.1381251254405716 2.782677180615491
C 4.200747485399278 -0.5266967156591332 3.0914440159756493
C 5.3942617965202 0.22377471419250708 2.6280007714894738
C 5.799263218969132 -0.26364018208257595 1.295670673737163
C 6.810887497667026 0.2510470343372915 0.6566011327269873
C 7.2406287224686245 -0.2018828661729959 -0.6573669527543171
C 8.272398053774095 0.3384257841053504 -1.2852964972149086
C -1.026817787038296 2.0621425087698926 -0.3054935827974015
C -1.7182085174052073 1.7629011044406449 -1.4001459084345578
C -1.8167382047017404 0.37282775902722887 -1.8225132507202435
H -6.634016300057096 0.930485082594135 2.3344648642191177
H -7.702314885958943 0.07171652393520203 1.098688703425623
H -5.018016031315138 1.4266624332727298 0.7096913893372143
H -6.8842758948346905 -0.059598729262772855 -1.3801214113428242
H -4.171740430882392 1.9618037531344095 -3.066472842513796
H -2.728009481141044 -0.1079453242206142 -3.6662815745426673
H -4.245630882076984 -1.902190341956014 -2.599201761211481
H -2.0293196902952535 -3.358052179644426 -0.20582840253073387
H -3.2282133606154275 -2.4435079582072277 0.8592600537880212
H -3.7646312582257337 -3.493070100504659 -0.555800092895419
H -1.3258713892704272 -0.8654987083200751 1.288759945283443
H 1.3976899399811755 0.3877764379838655 -0.8551328736944266
H 3.2115386774239987 1.9948968681079269 2.0599702948483536
H 2.154334990477159 -0.744349334236605 3.162251513526431
H 4.357292048210899 -1.393515408380696 3.6841567151646135
H 5.117394271632376 1.2995038435700075 2.564619747891472
H 5.2565382092871555 -1.0654369896073943 0.822534534890295
H 7.377586608805541 1.068722129892249 1.1203485775518782
H 6.7135636510480134 -1.0028154013967447 -1.1514470725213732
H 8.818928898084156 1.1500843192723025 -0.8022409053464201
H 8.593494069087798 0.008990131401468239 -2.2531078344449944
H -0.9397095616072654 3.0837068908186858 0.025248867230654972
H -2.2078104578865063 2.578609024922054 -1.9721653512613173
