18

C -2.0868522350909378 -0.9214081993122111 0.7006147476283933
C -1.0605354161341822 -0.1248659496111751 0.8476877894634668
C -0.2747323955778301 0.3632094596215373 -0.322369458275019
C -0.46879635111521195 1.8345285071827298 -0.4285891270952595
C 1.1701807089674823 -0.05675113405922762 -0.2361528062665587
C 1.3174644991371447 -1.5934786499344398 -0.19732595137343997
C 1.718690527625439 -0.7323329335300062 0.9343333001947522
H -2.3793114196784733 -1.238182392849748 -0.28688275303167105
H -2.6543171432338197 -1.2739439806967052 1.5448024175758048
H -0.7166531798692044 0.2301908934648047 1.825354489471668
H -0.6877021458415693 -0.12366194222890886 -1.2434871681772208
H -0.7768735709676645 2.268576431122105 0.5650874971806141
H 0.40513095932853815 2.3847098174150902 -0.8071614234406641
H -1.326793537798517 2.0403933624911823 -1.1042586320495407
H 1.8548337767058098 0.4545972552738781 -0.9135466878803717
H 2.0427305624274856 -2.0502108357560713 -0.8760861023187878
H 2.8073493092857476 -0.6569597202216688 1.1269721545016202
H 1.116187051829812 -0.8044099883711587 1.8478750068783367
