12

C 1.973481240782583 -0.2482462414372934 -0.3183633529738308
C 0.9286202532808115 0.5064786269416144 -0.5851555315634824
C -0.45132455457971055 -0.048061823631318154 -0.6491106929220101
C -0.9156976576843976 -0.903269300071164 0.5291898613476353
C -1.4094920978007692 0.5293471153471062 0.3053918168432292
H 1.8596686057656657 -1.3022241409134776 -0.13619579770361473
H 2.9587859919134116 0.200445428672198 -0.28250751853213735
H 1.0252334191392536 1.5708570009338259 -0.7713435359287448
H -0.7972755015987352 -0.39029444902338445 -1.6334872757530459
H -1.6234116802057 -1.730978752963459 0.3128979953461793
H -1.053475400328854 1.2092647361793805 1.107282367261877
H -2.495112618683563 0.6066817999659704 0.09894380507813104
