24

C -3.647317311027805 2.3122283488619773 -0.13574789692652645
C -3.342303334430543 1.2551346040726772 0.6005347794132544
C -2.4030063992653323 0.2820939582051617 0.09107484667188231
C -1.6036000452608379 -0.5174632263503084 -0.3306185857598135
C -0.6023837105794059 -1.4842950107329707 -0.8412880326996244
C -1.356304200630471 -2.6098309294606183 -1.4941137612080453
C 0.2286490486024853 -1.8904284828868803 0.2746571564494424
C 0.7246229378098038 -0.9058907342714911 1.0118115605063986
C 1.1928072576217312 0.13162936106829112 1.6410732988740138
C 2.427128329227815 0.6459685128481111 1.1353731728304672
C 3.4691627043381796 1.1027795133753564 0.7007813617026915
C 4.7338945109948725 1.6337666938469573 0.1688092019314911
H -3.190013925134742 2.436672743944521 -1.1115407834860047
H -4.355795645640362 3.0508533275917915 0.2429758842038006
H -3.8024868796749525 1.1348787041068644 1.5765796974315842
H 0.011604666480668878 -0.9905853223162702 -1.6353670977548698
H -2.265730374962772 -2.1652381330788475 -1.9547478455393947
H -0.7787446394448353 -3.0629530265408205 -2.3444069500912996
H -1.7071668749943638 -3.3761360529028313 -0.7783356589234847
H 0.5252187524405497 -2.836769516174417 0.6234954426368645
H 0.617614772355037 0.48035207156515364 2.447753350972258
H 4.822549181457841 2.7123964013905644 0.4405289421027906
H 4.702470439662894 1.5696089085191447 -0.9334991153278825
H 5.599130740038487 1.0912272853189118 0.6042170319842833
