29

C -4.9763885657001365 0.7642580533492705 -0.05639939409048714
C -3.8742634230756794 0.061635107877119094 -0.15364668089694722
C -2.5965877970603786 0.7517781678004689 -0.05310073227363441
C -1.5023102232210257 0.03560017683220193 -0.15227675295724136
C -0.13393802981404376 0.5554763986327133 -0.0756785193919749
C 0.32561830636916234 1.0734843375194627 -1.3914689378745706
C -0.493430114915584 1.0063340420091604 -2.4246292030949963
C 0.7772076244673711 -0.543525241846838 0.36544513228891606
C 2.1912007767897785 -0.30440591822460794 0.5738788141667942
C 2.7215086933717982 0.8694548986490062 0.38659238550374275
C 4.131513753664251 1.216264111390586 0.5679011974843854
C 0.3066632589796874 -1.764143213502918 0.576629577745859
C 1.138831922533838 -2.8926507018564176 1.0102052360647846
H -5.9500126952984065 0.3093379241033059 -0.12296003343085267
H -4.931149459598375 1.8252200894857276 0.09408328391303541
H -3.94281075079756 -1.0043065939139875 -0.30489075190296483
H -2.5137851989708206 1.8095372014798807 0.09698124978824404
H -0.024277683620263543 1.395754800724363 0.6449105198885152
H 1.3135801989227711 1.5044080061009923 -1.5243169565867813
H -1.4737131772241001 0.5765802966054395 -2.282411134688035
H -0.18695958431325832 1.3752051488545125 -3.3945168868882067
H 2.8200058620293422 -1.11754309365553 0.8915113462292652
H 4.460101119447337 2.056952178837116 -0.07129019763988181
H 4.822963021776674 0.35869717903621884 0.4019348428528338
H 4.267593251404491 1.52868105398181 1.6408598909710659
H -0.7559291750058695 -1.9418959504830626 0.41991588420500664
H 1.7757210521356852 -3.216525686893793 0.14307855403585484
H 1.78406113640312 -2.5748525034959537 1.8688700657494506
H 0.5189859003278483 -3.71481026939091 1.3634835949249349
