12

C 1.7887237111055219 0.5886165172677491 0.4265442390354387
C 0.626803891360137 0.6887716177503858 -0.20914552560992908
C -0.15805680680669573 -0.5179342873880936 -0.6198301721325581
C -1.5196766930171832 -0.4306090629801182 0.08367193582509258
H 2.2300302134617773 -0.36504792993648094 0.6814261607268007
H 2.3273523553493938 1.4835142222413307 0.7074160469141006
H 0.21780730644213744 1.6651060419708816 -0.4467366279176647
H -0.38955541151535394 -0.5197430732792233 -1.6950097293793556
H 0.3234347766555875 -1.4486777105667414 -0.3169182581187438
H -1.3064313191158154 -0.027305325720263222 1.0873608564156427
H -2.0062594343539817 -1.4033165764516722 0.15168475647878424
H -2.134172589565514 0.28662556709224385 -0.49901987245315504
