22

C 5.210869145240178 0.43106903762044385 -0.5635631180038466
C 4.414142877548418 -0.4865364793739564 -0.09231360427254245
C 3.032698472372835 -0.6020876432933339 -0.5109661814095483
C 2.2050577573346772 -1.5191495096709384 -0.05168946667020478
C 0.797428810277573 -1.5974364736089317 -0.5113220573073237
C 0.21589222847409908 -0.2633826380863969 -0.4547520462893171
C -1.0703330943094265 -0.20341969050331027 -0.22850567243080996
C -2.3790855093121883 -0.25125371811365754 -0.0872322896431974
C -3.131864613260185 -0.3432521405886803 -1.2983925442924682
C -4.25698229693178 0.32429546700708517 -1.429596308479955
C -4.754738451065061 1.1765668644337082 -0.3260731952104479
H 4.90489681518798 1.1751614569726179 -1.300918930710185
H 6.233573687640959 0.4745206804281469 -0.2183658954889145
H 4.795411248246762 -1.1949364659834985 0.6432270918257017
H 2.6589122429530025 0.09997898420012852 -1.2384474688885265
H 2.5867673525668295 -2.219283318642103 0.6771289003375912
H 0.6670440039346455 0.6818690203457558 -0.5692378262328315
H -2.693912976402797 -0.2156235042356043 0.9193885383661897
H -4.839133561062699 0.2687221401850204 -2.333770654190343
H -3.9829794028533763 1.9654163776013662 -0.09149824754114748
H -5.684473961971041 1.7105366193662104 -0.6065952195885681
H -4.9291907746090065 0.588224933939648 0.6101090433228359
