21

C -4.523171579897926 -0.13560130554180244 0.5033532289593622
C -3.2604290810163477 0.2305292522317311 0.40735011398273835
C -2.5117995049871746 -0.03342115354129645 -0.8149904292795529
C -1.2575486037287713 0.33947092444329446 -0.887963876044898
C -0.4691683177328288 0.07429717095343542 -2.144213690336572
C 0.9515431426690565 0.36886524630726136 -1.8672578751985407
C 1.4554902933372402 0.025824286749244623 -0.7132905739427475
C 2.065135908308066 -0.11548779006789514 0.41968427345976994
C 2.8097511242546265 -0.2554186314227179 1.461736311415659
C 4.292555745143838 -0.06236473751300288 1.4461057060730431
H -5.046717650444757 0.0747740783344992 1.420663290222488
H -5.037288868088986 -0.6359529872296508 -0.3086838430837794
H -2.791602533737369 0.7304917544464758 1.2536607561936104
H -2.977786939521519 -0.5241416710883336 -1.641178564831578
H -0.8126774807003042 0.8315071590105314 -0.04215972427704325
H -0.6454475394906038 -0.9972691933450306 -2.3741315160195002
H 1.5180607357885074 0.863076846800129 -2.645568164162103
H 2.3384345732953737 -0.5270139510885811 2.398543730687798
H 4.672660069400152 0.16441732773468706 2.4421548590775513
H 4.483171704975332 0.7760988576558471 0.7140776318412652
H 4.746834802219023 -0.9571485115631354 0.9721083552504334
