18

C 3.6487354977414275 0.4415281994389202 0.42071427377723936
C 2.6347036520740277 -0.22915810544275264 -0.06479525659088592
C 1.7064349518826012 0.3872166996425414 -1.0398335656728086
C 0.3217305427761379 0.4088387542638209 -0.5133217416869587
C -0.4545285952409055 -0.6567424317110993 -0.5890521047783762
C -1.8148046829275897 -0.6423090537873644 -0.0741686716145824
C -2.2650423408736797 0.4738677405866665 0.4787506361785145
C -3.656821236071573 0.4704431186897029 0.9992962631389571
H 4.344807734651741 0.023401381634433633 1.1328516234678678
H 3.8128041908790955 1.4648289025242176 0.10475468511798104
H 2.4703433998425255 -1.2514415526298424 0.25047464703789946
H 1.6927668418999904 -0.24123413173530225 -1.9557846234954235
H 1.9909008650102291 1.4296996676850044 -1.2853769561117008
H -0.05143741543431073 -1.5644025080631028 -1.0525396941147582
H -2.4195619292493022 -1.539314492080554 -0.15617081685561074
H -4.280385325471196 -0.04377493012174084 0.21315627102615664
H -4.041097145499965 1.4739601052309212 1.2181955190716616
H -3.63954900598944 -0.19340034612089751 1.9128495121048334
