21

C -4.285670168379806 0.9685733444627314 0.10464536983657023
C -2.9799721896709017 0.9345189361531798 0.2757308147274454
C -2.1915612204411805 -0.1469983801351452 -0.2853520830187884
C -0.8793632133483525 -0.20393871285538204 -0.12765059624968164
C -0.0566180351613045 -1.2831023554386554 -0.6821905623137456
C 1.0690263763614822 -1.5923298230041016 0.24943215613157305
C 1.8971359256090699 -0.3533213972953489 0.41447041678295976
C 2.7905193581451253 -0.07451971500219452 -0.5298719844367545
C 3.6069392855068645 1.151216384525379 -0.36270418673252547
H -4.91237619275439 1.7519565174188612 0.5028628700884874
H -4.777094324523135 0.18733306797423407 -0.45702263112559555
H -2.469449431617259 1.701279487109742 0.8311334563680675
H -2.6622415307744727 -0.9283632569881122 -0.8439928259640195
H -0.3571598289095971 0.5734202060977309 0.436090740051182
H -0.6077849938980179 -2.1480075226886957 -1.0477996905612683
H 1.7401704457768985 -2.3872804813117576 -0.09848191948364785
H 0.6178107224401624 -1.8245020021542304 1.2508088580468857
H 2.9329179022864444 -0.7043687591644349 -1.3957888495846082
H 3.8018029561607327 1.5596091090994884 -1.3949307283548749
H 3.1033172985248223 1.926807924417334 0.22687039211393648
H 4.619650858666808 0.89201742877943 0.03414323838319561
