24

C 4.763619811945348 0.33389679322793686 -0.07661275538658116
C 3.4734751683320804 0.09598842487539051 0.27824692772329
C 2.3892154282997327 0.4604369611207846 -0.5754723352242508
C 1.1172426841945038 0.3522662055812106 -0.4835657908988281
C 0.2402419552945952 -0.19315286113207242 0.5408179669741418
C 0.5039705589976616 -0.748990905668583 1.7020538572975568
C -0.7556413835234338 -1.1344925297093618 2.361250017230251
C -1.7703644041107527 -0.8228665206616357 1.6223616028456846
C -1.251007765334772 -0.20538721975896745 0.4146560036102556
C -1.9453345982707453 0.26653977716020183 -0.6190303579903026
C -3.3921790782551025 0.18307979400662713 -0.5952889523506305
C -4.142231955497462 0.6273854373433004 -1.5782667034833517
H 5.591876678422127 0.07090157670745846 0.5441019328204093
H 4.916180258950314 0.8018033945414293 -1.0161853509468664
H 3.3312852731213254 -0.3766346565852105 1.228457789390399
H 2.747665666247211 0.9493529833360971 -1.5370822081989441
H 0.567220677822369 0.7696770488933437 -1.3912560787353945
H 1.4835072706052623 -0.9061173278820576 2.122025014002435
H -0.7984102718300085 -1.6125440161509972 3.3326601339515953
H -2.846288868368491 -0.9723187280806753 1.818369869085283
H -1.4469409636857293 0.703132361274388 -1.459738141457258
H -3.90329675252729 -0.26158696906867224 0.26062100616716716
H -5.201804454484342 0.5516316425065606 -1.5310104002410827
H -3.672000936344384 1.0679993341240537 -2.4300670854490196
