19

C -3.49212533028265 0.8292928439900414 -0.07684491460284502
C -2.7462928519231142 -0.08008599636940546 0.4994629981880276
C -1.4292410523654906 -0.4366194878076332 -0.028965052759614654
C -0.7047298923612977 -1.3453523452058342 0.562231923778795
C 0.6337417840784184 -1.77557795544552 0.10919466374441579
C 1.7178743621140908 -0.8664466241009497 0.5632682812320736
C 1.885262827467314 0.31852767572802 0.012470927391302239
C 2.9674545127145353 1.2272255962824812 0.46502160306194174
H -3.142589961700404 1.3321952073326604 -0.9565579763102797
H -4.450571383427434 1.072766002332486 0.3274748720622998
H -3.1273683568394928 -0.5691508441022992 1.3852527083449688
H -1.0819775008377235 0.06051437001744965 -0.8998703124042167
H -1.0860390474936032 -1.8444643829621787 1.460674930830702
H 0.6322269981456399 -1.7450526289147386 -1.0002866776929373
H 2.373029994589476 -1.1849510974079835 1.3535827385319754
H 1.240330976643245 0.6679047107314551 -0.7868387611727652
H 3.956994371273425 0.7887855725911302 0.14796828898487546
H 2.89642029922578 2.2158503314305835 0.005512407187389152
H 2.9575992509814566 1.3346390518805125 1.582792964445515
