35

C -5.412865274296723 0.99195700363804 0.5337404768392384
C -4.99450894451776 -0.18309506478949336 0.13521695541106335
C -3.725398475067216 -0.7489465428439382 -0.09952232056423632
C -3.6953425540706704 -2.0327834657435324 -0.5177882359290922
C -2.414657817002509 -0.12261670502216168 0.0513454484709519
C -2.0992504581992084 1.0788118672006775 0.4289672226646799
C -0.6165400407817848 1.2131714812529617 0.41310653036203976
C 0.08396499314727195 2.471279743230922 0.7943510176778357
C -0.06338102769769086 0.09587746079803199 0.02789334328146615
C 1.3817936783920388 -0.21565950313839516 -0.1315546942626475
C 1.84940694224246 -1.4055384072638681 -0.5364900196336614
C 3.317877759828223 -1.4017432978692956 -0.5946636799331292
C 3.6623168529024075 -0.0324315564830249 -0.16487981090584405
C 4.987016388289229 0.5576824842757068 -0.02754096935255246
C 6.04256233901322 -0.17838360739936132 -0.3090484931862616
C 2.5128005204993915 0.6209651333064814 0.09366540546311665
C -1.1355628045193382 -0.8734933804378191 -0.24381010309499485
H -4.828073967576914 1.8288309791215103 0.782157942873747
H -6.534604514644062 1.1045115997595127 0.6153337333918371
H -5.845323213326153 -0.9256506113341604 -0.07189859131145268
H -4.622389364859186 -2.5407245624095856 -0.6455984751678165
H -2.7627320728665636 -2.506638745363839 -0.7091235843373427
H -2.7641649388030647 1.881313447613072 0.7160483154269895
H -0.7022256261687166 3.2202972860377956 1.1304746248793933
H 0.6334464863225787 2.877032252923496 -0.05872446822402072
H 0.7329758672727109 2.365296259350641 1.6757757160712632
H 1.1946329095493176 -2.244936826378071 -0.7823129063389136
H 3.7069499569770126 -2.1821556607628407 0.07735800313631168
H 3.7127286826128207 -1.6173654395367816 -1.6113255716060886
H 5.122643692742161 1.5671735387793861 0.29410646326499285
H 5.957757120294977 -1.216980146994791 -0.6421967475736021
H 7.055301188880627 0.18553187048895434 -0.23233032100578238
H 2.5229143226864443 1.647594536604545 0.4256300095346868
H -1.1300397441243386 -1.7297636729471437 0.47907883170319365
H -1.1300288631314166 -1.2255690981142966 -1.2954410480209977
