13

C 2.9602072337342173 0.41999774151239555 0.4524064847339518
C 1.638680769274097 0.36163801492756065 0.5018964985144636
C 0.8769656073590352 -0.5525628059410117 -0.32895116226813964
C -0.41541591647928694 -0.5278621704013441 -0.20077500816558103
C -1.7062241422174103 -0.2984997087899143 -0.347052776380906
C -2.845190157345638 0.3650912247110404 -0.9716583991160973
C -2.9904246594129957 -0.5459862450009179 0.018261807816279486
H 3.5156414827241105 -0.23179339099405805 -0.2284373707014881
H 3.4818164380445973 1.1108052082484972 1.0845816518036133
H 1.1531806271716263 1.0436500856306945 1.2066221453526904
H 1.3819903087445333 -1.2068201505511846 -1.0092619859723466
H -3.2390066129406856 1.0689030585700305 -1.6971824410697909
H -3.8122209786564176 -1.0065608619218043 0.5766507434936946
