18

C 3.435968158991876 -0.8959634827883798 0.14710858099201235
C 2.20746324245435 -0.5743214794282835 -0.2096580154330357
C 1.343785939350673 0.2729863183901996 0.599634581702904
C 0.12205395773074795 0.5941100443197033 0.24697715815918536
C -0.435889977347882 0.0907081358137812 -1.0234461758017996
C -1.2527750116451688 -1.1182010198133385 -0.8827281470127197
C -2.3810938748545833 -1.2229563574547697 -0.22929899018950795
C -2.955599995120748 -0.05914207375371968 0.4604231946912152
H 3.8808776256375674 -0.5430980941369395 1.077312906087162
H 4.065128895503616 -1.5254276847388086 -0.46332657827159623
H 1.84177354085318 -0.9670378249867537 -1.1494300371566462
H 1.7318262310484474 0.6499106126101893 1.528959589266969
H -0.46210858912785496 1.226227736751164 0.8951299950908566
H -0.8749697310826775 0.8793394491450641 -1.647878285430259
H -0.8827552567092333 -2.034117942313617 -1.375751411933598
H -2.643791895032975 0.01573073382035291 1.5355135985934372
H -4.081766879504445 -0.10943646324242809 0.5075110456766767
H -2.6581263811449323 0.9018823439973639 -0.017053009031291467
