19

C -2.3928673523587847 -0.6294102922254124 1.6032742168672616
C -1.7519464142761396 -0.22626294317034007 0.5328240165875381
C -0.8869238064868223 -1.1470407648187908 -0.214948672695494
C -0.23771245990678172 -0.7543055422931565 -1.2918171636335276
C -0.4003270693822852 0.6457341188915955 -1.7350138224481713
C 0.30847380726624696 1.621127540644617 -0.9088470496781537
C 1.5363548343122422 1.3475787866320306 -0.4894065311194184
C 2.5387392042154975 0.8314015397096705 0.2058665482177044
C 2.289583640984785 0.04402400512054182 1.4331165936065715
H -2.2819149219159316 -1.6460195176933319 1.9348487789038242
H -3.0243341727993798 0.028857586125972036 2.1557699900603247
H -1.8751137601022025 0.8033713826911612 0.21179141727833914
H -0.788467097918874 -2.163940611868725 0.13392555984993776
H 0.3825588914652555 -1.4604866802396874 -1.8061611270281759
H -0.09929979907669274 0.7014749754183732 -2.792404808620402
H -0.09044984186112243 2.567503049216418 -0.5994209368748495
H 2.2474501355355243 -1.0220541254780864 1.129115513181852
H 3.1730430031305383 0.12338374559608214 2.125054339566327
H 1.3531531791376843 0.3350637477324646 1.9497184627053503
