21

C 3.9507512065874937 -0.5672152998586197 -0.781284745502172
C 3.15891430433965 -0.1688269548307705 0.2136801600056855
C 1.887416557088184 0.4314539866251007 -0.11988518528734891
C 1.0418249825556338 0.853852367399283 0.7925677648718387
C -0.25818914155807715 1.4688144001430055 0.511473587037675
C -1.3066433635704673 0.473130959979069 0.1717847391143321
C -1.167837951285454 -0.6596539216822401 -0.46900039116688114
C -2.4235229343292315 -1.3728016577919835 -0.6159102726583009
C -3.3531133924864056 -0.6362129400412594 -0.03892814350916611
C -2.7447499935637936 0.6040290799619146 0.5174570026764961
H 3.6676884371053418 -0.45286096724524394 -1.8002037309604153
H 4.903408853759005 -1.0170039594617444 -0.5328012561272535
H 3.484709350398203 -0.30308826169635217 1.2567153113228209
H 1.6115713423144018 0.5421855705524155 -1.1455538409984045
H 1.3136199701518734 0.7457492564409218 1.8520341067739396
H -0.5618777589728875 2.1751032530203505 1.2790489353133994
H -0.1993715853752157 -1.0031053374980938 -0.840199154267476
H -2.530935659506474 -2.344080157971845 -1.1220708147524714
H -4.398482228789192 -0.9065969030321911 0.014117307459457287
H -2.8920954936930916 0.6809468559772588 1.6118252180351649
H -3.1830855011695647 1.4561806310109981 -0.04164224437931353
