16

C -3.415884435786361 0.7790373576842909 -0.11574359369150682
C -2.2310693891427618 0.23198721938299302 0.09312881914245279
C -1.4318965014377218 -0.34205508749737573 -0.9780539940821826
C -0.24853390395898625 -0.8888775001061662 -0.7720246154703175
C 0.2516719990296556 -0.9058976171197362 0.5808133400723817
C 1.1348807674944035 0.04472203782849466 0.8643203079965097
C 2.251832728031236 0.6907150692084182 1.1073117118953293
C 3.5538763177111927 0.12340191168507034 0.6423978127983703
H -4.017138660283414 1.2076036354902042 0.6706093104901852
H -3.803418654184951 0.79760137046035 -1.1322987949557568
H -1.815678046869103 0.19813127027857846 1.099788585805619
H -1.8142908373403357 -0.3249195592332156 -1.987736871212914
H -0.009629487488082743 -1.5896694029315261 1.3523396106072418
H 4.3282322161788525 0.9168507361038895 0.6744131035662938
H 3.484985975990092 -0.20470514301897225 -0.4127250624607484
H 3.782059912056762 -0.7339262982162882 1.3123093069963714
