20

C 3.3882502088055357 1.165880048315711 -0.020742174916183867
C 2.1574160497454704 0.7076607599817197 -0.10020160032856192
C 1.8667026477754651 -0.7292110583931057 -0.19626618969403636
C 0.6097442456287927 -1.1272788910899332 -0.27333734389485154
C -0.26902440833915076 -2.325667313370742 -0.3807502450789028
C -0.8217152583770649 -0.8948873837952285 -0.3212332580750777
C -1.6215797489227783 -0.6358924853567035 0.8869957761746523
C -2.408167615944639 0.44057851279061505 0.9942191273395543
C -2.4627621108671476 1.381817940648132 -0.13815173661306587
H 4.227272014850644 0.4850162701317595 -0.024354875766068148
H 3.603338136177511 2.2178857947718678 0.049698752256031674
H 1.348986677074988 1.4400520757139073 -0.09227181584199037
H 2.720525364263932 -1.3904117498348347 -0.1980966113363507
H -0.3077285983048206 -2.9376307690071384 0.5275241026911368
H -0.3967566572827692 -2.8093812410640377 -1.364301954355348
H -1.2473338614495373 -0.4750862624561808 -1.2663231617226491
H -2.9988772052027706 0.6487072240941566 1.8642579149653995
H -1.4426713107906501 1.8021811912986327 -0.37830550560405285
H -2.822533528291475 0.800774975810923 -1.034064749537622
H -3.123085040549394 2.2348923608105067 0.07647294421109702
