25

C -3.9211018050935467 -0.11958007157380612 0.0615132483334552
C -2.714690161225455 -0.5308360912354667 -0.002090244663443734
C -1.4553806379851844 0.1965326495256138 0.04396651121618917
C -0.23437690785661305 -0.3620358768821594 -0.03376987833599411
C 0.054354082001697515 -1.8291703481510617 -0.18125214651570282
C 0.8218432094597043 0.6218891190352037 0.04053866681753624
C 2.281564571629791 0.3713763025983384 -0.014069811141243976
C 2.6946972067305315 -0.8659809842832199 -0.14417690798642577
C 4.087384518511483 -1.2949747288493632 -0.21495004642458096
C 0.2409441659087907 1.7866470809035242 0.1644224877205424
C -1.2205296855399925 1.620322185989017 0.1769231876035836
C -2.055331326146916 2.623054781996565 0.2900301450843267
H -4.287270788183345 0.8552734601152975 0.16346211344027142
H -4.720041940404885 -0.8967619611098498 0.0016018632167122359
H -2.587417277279575 -1.6265907233038623 -0.11206021743969174
H -0.8469268349704294 -2.435312005895432 -0.16956239181811228
H 0.6487867573696807 -1.9517882515568372 -1.1302684355110002
H 0.7237790234933413 -2.0657875838903847 0.6993895830758962
H 2.9684636893074763 1.1730353022520925 0.050602072745238126
H 4.6991688486211745 -0.5465961511787557 0.356075016239913
H 4.418915980537999 -1.3675365832421071 -1.2727242558771947
H 4.279296146530585 -2.272685791485311 0.29979615746422833
H 0.8293552454605507 2.7011301810094532 0.24127205577212932
H -1.584864189857547 3.6331547599330416 0.3784457003062832
H -3.12062189101923 2.5832213292795667 0.30688552667710484
