31

C -6.2565130432893685 1.223140183811716 -0.16790380416234216
C -5.220627246441678 0.4230444538577559 -0.21042146330308936
C -4.309514643101191 0.5091253118360207 -1.3344533067677187
C -3.268464710625954 -0.3021541531073738 -1.3672892960509266
C -2.977314539797771 -1.2927342185565234 -0.3257630707925259
C -1.5902834035794267 -1.738390793274644 -0.3181081605994608
C -0.7661103536618078 -1.0362658049422035 0.4266105961559161
C -0.001923501046912625 -0.20566512850144636 1.113276395577691
C 0.5361811966970014 0.9215031725459479 0.37482783676609716
C 1.5080468547187273 0.42025107510335935 -0.6293558482573494
C 2.732781978551448 0.07357165895199363 -0.2669621754993361
C 3.2412513718826728 0.14516593600787647 1.1145270906985305
C 4.435786463870697 1.0133676422070406 1.2515203993312627
C 5.510686379886743 0.7335420344936324 0.5452374780339654
C 5.529973725352476 -0.41906305380386244 -0.3646192249369417
H -6.9609836901749755 1.184407121227121 0.6629108097980821
H -6.458999737874306 1.9396520647121605 -0.9302207057438416
H -5.02678051012092 -0.2967664798788368 0.5659706556336306
H -4.474383397863612 1.2245212609869576 -2.1367577112174816
H -2.5914576599284573 -0.2367805352332311 -2.2044482949162654
H -3.69648950060228 -2.137290779463808 -0.31241037760800916
H -1.1206365331358465 -2.5398576694497463 -0.8152632344937555
H 0.10517999550173841 -0.4913700366171725 2.1208446791179854
H 0.9781643849254366 1.720518130794449 1.0007633139987038
H 1.2431543212381468 0.3264749896074665 -1.6716333000290104
H 3.547351758977796 -0.8745552781535477 1.427140799873388
H 2.430022773934352 0.5050534159906557 1.786023594820248
H 6.401463176514125 1.3442136065923573 0.6186472366768485
H 4.9624175036563765 -1.296844537290108 0.019985909764996097
H 6.564984515420789 -0.7206939493605822 -0.6339008241535008
H 4.993036070122229 -0.11911964105786242 -1.3116102793051263
