19

C 3.8188209995165256 -0.4746984130740471 0.8461945470264912
C 2.5238565938233704 -0.7165122501451008 0.9820122753721026
C 1.5680445292274157 -0.46744895287532584 -0.13339484643717525
C 0.5645540622763391 0.532270655273078 0.3298869889838006
C -0.454681544927211 0.9081179093472583 -0.6154668061354786
C -1.6926427663568164 0.9747349199732398 -0.14578557986901833
C -2.881114916165114 0.9235651880738961 0.40408143947074093
C -3.5480996380894876 -0.38554030881957674 0.34872525762259393
H 4.506408895502082 -0.6578133529540416 1.6598117832607997
H 4.176743579066605 -0.09059079550675167 -0.09345789793177924
H 2.09866468733542 -1.1040312311648248 1.9027225688680924
H 1.0542966288795406 -1.4245839455096834 -0.360705684074241
H 2.0990409516142754 -0.17460828270909673 -1.0587451779082258
H 0.9662806525350762 1.326600538550165 0.9685641182508404
H -0.41212845100926576 1.1481025545977603 -1.6415107307022028
H -3.2131549583754224 1.8312293863686502 0.821520714432375
H -3.4382859655292917 -0.7620829032856355 -0.7011035223253004
H -4.632582600236977 -0.2806050022672641 0.5483144241175132
H -3.1040207390870544 -1.1061057138726385 1.0728985627320429
