19

C 0.34832250865106673 -1.9506191025342658 1.4419927830131125
C 0.9118597916022295 -1.7918838365861582 0.2695647963437502
C 1.0103355495991895 -0.4748271778723439 -0.32280769440595697
C 1.5521902143416952 -0.19575333776562187 -1.4880840476454904
C 1.4697900950793623 1.241329485832438 -1.7555714403427893
C 0.8751034864040363 1.8441759029414777 -0.7499220580522644
C 0.5368383614871423 0.7926689984585521 0.24120769232483805
C -0.9087711486012376 0.6851570969115517 0.4877223447666143
C -1.9736098788512015 1.3463152863981305 1.061107272832618
C -2.2164615031007444 0.049869279876524224 0.4259986949869257
H -0.040028650901209106 -1.0991850588839667 1.9611884141883333
H 0.2670195702341767 -2.9166886874081634 1.894576269320016
H 1.2952361448783336 -2.6871805715928767 -0.22654928849373904
H 2.012505395681213 -0.8816821446895416 -2.2005802716192018
H 1.8418626892524248 1.7437073214619285 -2.649135100058479
H 0.6669024203052548 2.8868357112161984 -0.6477987059480356
H -2.364859219252891 2.2039451309893763 1.5970842439751547
H -2.801406228087374 -0.03253764918657417 -0.5013938648636672
H -2.4828295987227595 -0.7636466475807199 1.161399959639584
