20

C 4.055633166971317 0.5780085748819119 0.3303203476389462
C 2.8183874794378734 0.26639282619312316 -0.014959415253708096
C 2.2829384546975926 -1.0287608581735719 0.3805657227581111
C 1.0477585229240898 -1.3166729094589387 0.02496640226907082
C 0.23669256847348638 -0.3993002016585804 -0.7281871342843568
C -0.6581724281268979 0.2728799350467596 -0.04744033515157524
C -1.5926194099209237 0.8108074422398491 0.6937732847451196
C -2.840788405955488 0.0808528885830539 0.8142491471531119
C -3.768069095813432 0.19062974335499316 -0.34621611469830327
H 4.435102799436615 1.5357190990381726 0.03129915967569816
H 4.661728396961711 -0.09968199721703845 0.889465897273642
H 2.2038605730057084 0.9475869484117635 -0.5790743750733459
H 2.8811602326827885 -1.7311526159311927 0.9481716514091415
H 0.6554489935796812 -2.28384053617143 0.3233206141446407
H 0.24416121578943364 -0.1761970781442779 -1.7607058764399415
H -1.2956030660878939 1.7448176784586487 1.12351884251998
H -3.308797972996648 0.13643374757363194 1.7990122519976721
H -4.2265161802986055 1.1897958151770502 -0.4769073182404355
H -4.590402818713209 -0.5610606680296455 -0.1856565725616783
H -3.241903026047277 -0.15725783417430003 -1.2617203438896443
