29

C 2.0199386527259264 2.7606635485210234 2.739635733861787
C 1.525012319417659 2.247811103112279 1.5728225783269956
C 0.7941839080727338 1.0287627754764361 1.5803200461671996
C 0.2344930288537365 0.3341732894609732 0.6911101666290811
C -0.12330985975358655 0.09562754487838795 -0.646593185280316
C 0.07929079682223482 0.7601843396206401 -1.8680339930695569
C 0.6025295520222398 1.7732060387203443 -2.3924813648591363
C 1.354997374089858 2.893649709017562 -1.8881603199069872
C -0.8685240984315077 -1.0915179740202499 -0.8524725013108408
C -1.2275014583584458 -1.9775322892071547 0.2227596781943445
C -2.6369589220003915 -2.3506763418574956 0.30488077490983595
C -2.6689177594078286 -3.6627570116552493 0.4587430221707221
C -1.318373728813933 -4.2108691623519965 0.48566666555100513
C -0.47609651309216866 -3.2100089447201205 0.34590374004642244
H 2.557405323004494 3.6720027851892514 2.6785771842739687
H 1.8298368978466146 2.207735393028223 3.6254835126839224
H 1.737805699524261 2.8288042598918994 0.7215830902379372
H 0.7330246001143754 0.6339080189057502 2.6781409741805082
H -0.23793701920282465 -0.6186152873301384 1.3130785158094618
H -0.4411460137015277 0.13379023298171297 -2.7722943577628874
H 0.462912642097947 1.8449645759255642 -3.53395065613176
H 0.745171403777175 3.4725395868747713 -1.1907189343199096
H 1.6441834147196241 3.624238845377276 -2.7199247398277193
H 2.3429216702589883 2.600612169485316 -1.43624272362988
H -1.1444707840611943 -1.284743047875211 -1.8495137239429242
H -3.4583646706676974 -1.6401973310005948 0.24456403108702776
H -3.5759923769729767 -4.2534156263444824 0.5524523000394631
H -1.0757423059651814 -5.2837277099285656 0.6041045742157426
H 0.5896282270648876 -3.328613490167333 0.33055991167825755
