14

C 2.322537174528905 -0.6828371020929035 0.42655268821647296
C 1.654111398189402 0.4360476834014676 0.5616783988322497
C 0.3516414096805644 0.5963674184537734 -0.01440712177679389
C -0.7728857916030931 1.5355267252255713 -0.17902506970620663
C -0.8118519862756841 0.15826478860239118 -0.7706201213255364
C -1.8548520989314674 -0.7387597102041044 -0.11527578196052052
H 1.8981003663028175 -1.494037277175752 -0.11997384267928667
H 3.287297318224357 -0.7843962091768049 0.8603911806747074
H 2.1464789632016075 1.2352517411806692 1.136758906128545
H -1.0666126049784164 2.5180210630789936 0.08434805134831665
H -0.8304212749406377 0.19545169293535894 -1.8868832841489096
H -1.4524213808782525 -1.2106822101546428 0.8201544526367872
H -2.060548755931162 -1.5512025057525523 -0.8556971449208642
H -2.810572736589854 -0.2130160983205206 0.051998688680280805
