27

C 6.810558552395377 0.3113665301369783 -0.2824705771680887
C 5.5099135319935035 0.03809356063978392 -0.27538526134734154
C 4.718166135248341 0.43839651214450914 0.8388506910772394
C 3.44438940261951 0.1511021905550296 0.8070359358045065
C 2.153545537531503 -0.09448903334956524 0.6326546989521509
C 1.4154793310666236 0.9226359179863354 -0.035733521953722945
C 0.09966292084874191 0.8660404752688996 -0.0874660446567934
C -0.5933216617594351 -0.2148268414941814 0.5259936688317927
C -1.5162134236041922 -0.8029118029509471 -0.19741673900429826
C -2.4910244624424522 -1.2479264972571975 -0.963758253132898
C -3.7693019354693056 -0.5809049273170288 -0.8352152056471798
C -4.133793414260531 -0.13464721713853486 0.53889356484723
C -5.484784839470083 0.5457131556997039 0.5463120511741117
H 7.254732313834416 0.8316467042991686 0.5514035787158317
H 7.3971021871949105 0.0011817973007583501 -1.134622591915404
H 5.095611252976934 -0.4790292527510837 -1.1151207030001593
H 5.0112572280678265 0.9490793724310621 1.7141137047547925
H 1.8640090425703362 -1.02937705723058 1.0233624998850002
H -0.39592208315832894 1.6827807916976365 -0.6178062203746607
H -0.49327534414700247 -0.6375240109273013 1.4883531223164754
H -2.1911640072855123 -2.051794228442542 -1.5824272789381169
H -4.576978594791341 -1.2275704543797823 -1.2307440881174656
H -3.420805974972694 0.5271178663306668 1.0192921327176956
H -4.242647675844994 -1.0307219179594502 1.2150275468913572
H -6.099920723341298 0.15790604739463382 -0.309391937639793
H -6.005203699689853 0.46589970415968485 1.5141189071746017
H -5.360069596111461 1.6427626151529688 0.31353916446484775
