19

C 1.7133631014225585 0.7800456933258109 -1.6972705254083544
C 2.2391981772935043 -0.2061279546032861 -1.0335337132500109
C 1.7168795774143895 -1.0080552390909234 0.027068933071524397
C 2.5690602270963323 -1.9759310183554606 0.4941665878557279
C 0.4886105645901608 -0.9530669698945805 0.6474554113367754
C -0.5663092700494013 -0.25983464732476325 0.5565748959170375
C -1.7291431618636086 -0.5306058738461654 1.4555998406388784
C -2.7981207193205817 0.21483199526058278 1.3218879258149732
C -2.8541112574965894 1.2918400924945066 0.31257553314776526
H 2.344675159505279 1.2472798708757777 -2.4945211105138227
H 0.7482968167131807 1.226018341900415 -1.5986337949732998
H 3.2915910804570547 -0.4629841148551616 -1.3625873336277006
H 3.5468143671612653 -2.093366203944315 0.07138620696258247
H 2.2871551629225966 -2.6352794539009774 1.2852795647050292
H -0.7362077259923059 0.5495627253028689 -0.13168226829553192
H -3.631542925531188 0.023714302116003165 1.963525146533337
H -3.8534742403818822 1.756718226001045 0.3514057570550279
H -2.122476882387304 2.1162372946998795 0.550028217340406
H -2.6542580515534016 0.9190029338387219 -0.7187252743103013
