37

C 6.990750593165587 -0.13128520953780815 -0.7096832236963456
C 5.94857204682459 0.34393781192031225 -0.07289386013529296
C 4.628929936558189 -0.2194943441077774 -0.39965464549325386
C 3.5526338924889544 0.25019230958542277 0.23793488293778595
C 2.2629922516591163 -0.30719553263879024 -0.08850040115397602
C 1.186226834733333 0.13941869679093702 0.5252458332079648
C -0.17059296888836575 -0.3743555513015268 0.2525370249793917
C -0.6805296713996877 0.08322526538084725 -1.0904798769274353
C -1.1004908211976792 0.07356587234323259 1.3222919949392622
C -2.4695279611228913 -0.39589124396584563 1.1281906686470091
C -3.436203014102873 0.37476918318053276 0.6038856082774904
C -4.81867291666418 -0.011805760370827766 0.3773261634319527
C -5.575552112860747 1.0501679525890923 0.17256254522076467
C -4.740979989802583 2.270464826081868 0.2463178077310741
C -3.307630607676387 1.77870601198895 0.14435426036420362
C -0.13562379459797802 -1.8666194523931015 0.2643465390596369
C -0.703135508096157 -2.6075160645618927 -0.6533140874914228
H 6.899658546872043 -0.905073113509186 -1.4469275705290425
H 7.962658691218363 0.2699645033398798 -0.4821501774342965
H 6.049458576887896 1.1301229696671138 0.6746539397297703
H 4.528213797048667 -0.9853669724897234 -1.1283665580972038
H 3.6857642609125363 1.0371469793654131 0.9867980378163801
H 2.1651213994194634 -1.0758881295939162 -0.8186151384691596
H 1.2686853346906437 0.9365283103159038 1.2841577416072725
H 0.019929146643018758 -0.28300570436990874 -1.8591519749374144
H -1.7161272762804707 -0.24239321072357523 -1.2187845563705941
H -0.658271506200514 1.1945152113311932 -1.1263549556065342
H -1.0005601186571882 1.1142785751652422 1.622037798638461
H -2.723569525892826 -1.401269310441649 1.4150566117195198
H -5.1890610191910325 -1.0519771832640488 0.3764787235227242
H -6.644481759069004 1.0499477566192048 -0.021271315707283727
H -4.923401553195188 2.87121174195778 1.1517036871319954
H -3.0492206121891883 1.7452175377785568 -0.9549916667762378
H -2.6072932154818225 2.377962937959721 0.7271126574202266
H 0.39548567576039545 -2.323390724927316 1.0899257990447513
H -1.2509791019950156 -2.2218463538840907 -1.5069148621203108
H -0.6431759303179395 -3.6869705912809585 -0.590224208805844
