25

C 5.094547697395461 1.9530691893581666 -0.49751313213302173
C 4.77957165790097 0.7871074127644654 0.055713590149047275
C 3.4236075317477646 0.28203862444502903 -0.015033718836457348
C 3.13307515895257 -0.8708247358057702 0.5372877890756488
C 1.7182247193669706 -1.3818098337552045 0.45477207514237544
C 0.7955451599412472 -0.2790574173844074 0.21532257315242812
C -0.2905444609104209 -0.5792820859073914 -0.46012554660232025
C -1.3937186250579774 -0.9891400653820897 -1.0394371575871058
C -2.4309593437872175 -1.4471339797557243 -0.1865960234833713
C -3.306806716220568 -0.531560189322933 0.19631226347928898
C -4.18783154371286 0.4154598817128706 0.431175067370306
C -5.271793740786908 0.5420234832317404 -0.5387171894891728
H 6.105558587107429 2.320735260997143 -0.43991559437716415
H 4.352239464733135 2.544523122160997 -1.0077375538421516
H 5.532965922679318 0.21035554329420209 0.5607659729788057
H 2.6666428138620684 0.8748954613083519 -0.5297413223631318
H 1.7132968191008198 -2.0878289177676552 -0.39958555040362725
H 1.4626781213840212 -1.880171269748376 1.4087641475191017
H 0.8500000729555492 0.7368546498633691 0.49713542635580277
H -1.3509256535003935 -0.9186171355289109 -2.096914105283604
H -2.6429122328023005 -2.4032623441429646 0.20958195203818356
H -3.987025287312592 0.9680583629728007 1.3064869715450664
H -5.067415137944836 1.2601778748200196 -1.3604355441132974
H -6.183848262145176 0.9005554874878643 -0.006898514475120418
H -5.514172722946329 -0.4271663799154909 -0.9921133903872454
