21

C 0.6104451394743674 4.496300685071993 -0.4044134880555195
C 0.22067444579019552 3.3515720690081476 -0.9068151828893498
C -0.2632220856597327 2.3185814880232365 -0.01688431407088185
C -0.6542309207937239 1.1681635190000512 -0.5290724262976297
C -1.1534432607105183 0.09455706961059482 0.35821223254245577
C -0.9878306362703844 -1.2245727790163967 -0.2571952572785818
C -1.4058959253554433 -2.0663221903205202 -1.2369201009883102
C -0.35880245179611403 -2.5179001348420273 -0.33751477771586474
C 0.4888615555924432 -3.4153995535475876 0.0674969542894621
C 1.4011590278944337 -3.188139102848478 1.2278088012647865
H 0.9858496734823475 5.32406831686309 -0.991933746569444
H 0.5753284502807993 4.678230911265948 0.661950739195851
H 0.25905291897085236 3.1819703941652278 -1.9580123006473307
H -0.3059349357017839 2.4850736936016298 1.0666526591567074
H -0.6051055769500973 1.0245882608239185 -1.588271299799029
H -2.225728356675823 0.21870588717798903 0.6212255347478943
H -2.0703008301608192 -2.2426748903757585 -2.088704918811575
H 0.5445363110892774 -4.3602814056248045 -0.4437610827038917
H 2.1711371323350415 -3.9783127641909513 1.2782816636936936
H 1.9360148836742166 -2.2300800097180957 1.0468251121526928
H 0.8374354413605825 -3.1181294643484816 2.1788612164652146
