24

C 4.709132190229423 0.48992272019379857 0.7842119298750913
C 3.50861074094854 0.9701362361650149 0.582836669346138
C 2.4925395901451086 0.15188171669788064 -0.05596883360457565
C 1.2528276312935511 0.6216968844696226 -0.27388813158252634
C 0.25493981451015 -0.2504993848544763 -0.9274928488027177
C -0.8877083077995404 -0.5981836151014103 0.05008460164844848
C -1.7939122028151084 -1.4524931026920849 -0.7085097251431922
C -3.0601579662970435 -1.1742144336074665 -0.8755560130279575
C -3.585913756418622 0.039497813215105614 -0.27880478836676525
C -2.877151779304732 0.8891645458603362 0.4244881411831791
C -1.4437536509413764 0.6309938124561137 0.6479207121924522
H 4.927683601389841 -0.5180452368379846 0.46881869997773395
H 5.501625901593493 1.076067339013064 1.2625393019640583
H 3.3092565976933277 1.989677573286619 0.9088166717645213
H 2.744999063223865 -0.8545394830418442 -0.35990735274399716
H -0.19136269840920694 0.20435202545120218 -1.8369647620063771
H 0.7288892547676731 -1.2180447213838266 -1.2386276736241388
H -0.40367956704300223 -1.1850043770689542 0.8985643104853064
H -1.3559128653014003 -2.358147749269972 -1.1417217573379257
H -3.7289236791852134 -1.823201672062395 -1.4465848762920204
H -4.656897897089231 0.3071496604415172 -0.4004471139250701
H -3.3304484515307027 1.8013394171483184 0.8576034974685351
H -0.9053268354886101 1.5178669934147735 0.19251048763363568
H -1.2093547281711807 0.7426270381070166 1.7410385608069048
