38

C -6.261808114101639 -0.5180229794020379 -0.3215000194400846
C -5.91989046339696 0.5503255709196073 0.39003758361776913
C -4.615141011053498 1.2213375072249564 0.1417526926944577
C -3.8868736122867054 0.5383510339735922 -0.9169803635206304
C -3.238621689431149 -0.5543068890449989 -0.5747907005555362
C -2.5375741207277898 -1.5494701914667348 -0.09711656798356202
C -1.2157690942811927 -1.2661442404810863 0.3917791895949767
C -0.5035848601032055 -0.12011178833328909 -0.2484120834460905
C 0.8667940703886655 -0.019791081784566938 0.43435423844229387
C 0.6780601165421271 0.2246004554772868 1.925362145187353
C 1.6870128545552385 1.0588079584049426 -0.11667989455353539
C 2.841686789164089 0.7745371484278818 -0.6938303422413943
C 3.360839557278033 -0.6204875719462947 -0.8137317671913619
C 4.258032837967833 -0.9960437568698594 0.2910525203141778
C 5.469061058747924 -0.5104785163213162 0.36815876801646297
C 5.949115624534294 0.43309387015422257 -0.6714592096797593
H -5.629383499443692 -0.9403925756006116 -1.0923694515582214
H -7.206778233708218 -1.0201730161105966 -0.1557452244806834
H -6.602114244583864 0.917632819508177 1.1447565108507873
H -4.08433671699664 1.252979283099967 1.1101664184267277
H -4.794279298633718 2.27730071787528 -0.19067964525744555
H -3.7865440526087015 0.7770571267007231 -1.938131884276579
H -3.0390886941860704 -2.4763162646312886 -0.12464262597259392
H -0.5660583951028829 -2.1589647979131854 0.3116784304050231
H -1.0079822708057622 0.8468571975324067 -0.12149143805438826
H -0.28873328597598563 -0.3067028866368416 -1.3233449136136084
H 1.4234203788281836 -0.9714174520379592 0.35228454555815736
H 0.4769099430251482 1.3055770554292487 2.1181414119816595
H -0.1620212697835276 -0.39099841346955694 2.29718114648521
H 1.5813101876263003 -0.08965369767885806 2.4598991465109474
H 1.3549329877147642 2.0807459432657986 -0.054260128647206064
H 3.4453717645946376 1.5763243848062294 -1.1002722550870963
H 3.7368242163599827 -0.8633505316334222 -1.8068270953400116
H 3.8483242842686387 -1.7003041163320924 1.0343571348506764
H 6.134587735776652 -0.7751521151534603 1.1678626348021197
H 5.407179982673319 0.29089043081403954 -1.6089849076485747
H 5.774967882546836 1.477498962591647 -0.31917085852379606
H 7.05215065461813 0.24436541664035946 -0.8063135176010037
