22

C 4.639679515758403 -0.4928216192503536 -0.39966979217511395
C 3.503747719025561 0.18329925782483278 -0.32696888995526413
C 2.399356850085565 -0.3758920535129157 0.4378313710174755
C 1.2734103376049435 0.296749506746748 0.5084932881854973
C 0.10604669288096714 -0.1456599755095801 1.2320801560151937
C -0.9535757857792131 -0.6870077347715984 0.6903737911925881
C -1.6994512305632878 -1.3397235078042975 -0.15691778160035894
C -2.659823715681282 -0.49798801715848345 -0.81554251342951
C -3.2946576585694842 0.4508124045838036 0.12641562973793166
C -3.190158529587971 1.7515174612330164 -0.054257558674253255
H 4.753992541079514 -1.436846325524381 0.09282485978917582
H 5.4639489348826 -0.054672860467581616 -0.9823448176047118
H 3.4012072843826013 1.1445738690186782 -0.8340541574344048
H 2.510676771028813 -1.33151456421456 0.9381391736815495
H 1.208551768464778 1.259565306206801 -0.014675920898052077
H 0.03719647966393283 -0.05721135212991375 2.2517391141140592
H -1.6246878144698997 -2.374782505376927 -0.3595130894079156
H -2.2552718591015863 0.08308599585362411 -1.6866143771277338
H -3.5038783609020707 -1.0880208331643861 -1.2885411711582464
H -3.846208135923987 0.07752042465443434 0.9658737438874219
H -2.6278512083068786 2.1615916886810655 -0.910597109145379
H -3.6422505959721123 2.4734254340819346 0.6157326677338529
