22

C 2.3865375762176293 1.7542928177804735 -0.44031769332988446
C 1.8505500341843055 0.7813413112167535 0.27140883388264864
C 0.7074505212999257 -0.04261340942932713 -0.25887339841015533
C 1.1002423391535465 -1.4586436383164045 -0.08693170091903776
C 0.5998850670342198 -1.999502076438231 1.0051371063102985
C -0.20418608513239875 -0.9742796767998205 1.6999356998121136
C -0.45815525857208605 0.11472502080988092 0.6547562223963346
C -1.785606537350614 -0.18203002640124566 0.009599882763204568
C -2.075439536094247 0.7122727475448497 -1.160356503271596
H 3.2002802518925377 2.3192973103128125 -0.027527430328866117
H 1.9934582147441622 1.9599146807050283 -1.4232273440735417
H 2.2608984358123854 0.5901842265462951 1.2584825789643512
H 0.49742322412755663 0.19285506675823083 -1.3099480746973622
H 1.7332418518195278 -1.994505614643721 -0.7862410643314792
H 0.7158371466895795 -3.0183134584224067 1.3922597241287307
H -1.1802967047376665 -1.4453029713277168 1.992483446148359
H -0.44161816556429645 1.068935362597712 1.1904633103662141
H -2.568181258709341 0.012455203378835298 0.7842112546933485
H -1.8145200136889124 -1.2409178036837702 -0.30222304094368396
H -2.1590630275697507 0.12187233568176686 -2.0979983237413946
H -1.2960502179126776 1.4880517323414406 -1.3146434016131872
H -3.062687857643469 1.2399108597885096 -1.0504500838053832
