25

C -4.30055728778608 0.004186609784513497 0.8237688540154663
C -3.1454623473121974 -0.25443561583144314 1.4137636476368876
C -1.9186337784164513 0.4448051780201754 0.953639665063084
C -0.8723333696161755 -0.5325008084295133 0.4622650492272107
C -1.4323102233877498 -1.3138261022988238 -0.6805840564629025
C 0.39098942164973416 0.18598575186255412 0.04178208800354337
C 1.355627601924972 -0.8081389168157322 -0.41966701674607587
C 2.469987526659429 -0.3326116197653826 -0.9261415751788629
C 3.6003377503830087 0.23901341735358306 -1.3096613577588754
C 4.584752499687499 0.4706222802361427 -0.26638278121565667
H -4.373312738006944 0.721016169112408 0.0049108602445886345
H -5.227273655535639 -0.4764638566389642 1.1182737243099865
H -3.140643683335688 -0.9765894169195394 2.2211036203406507
H -2.1329685969851555 1.2094153206506588 0.19436556891100756
H -1.4865006733242414 0.9624184556567866 1.8360754288496457
H -0.8076973819032468 -2.175244819977533 -0.9769073340205872
H -2.424230816907659 -1.7417114738522712 -0.38334447245697867
H -1.5842705590008563 -0.7080173834860962 -1.6010104755638523
H 0.8064374861942902 0.78494108589281 0.8748137531077602
H 0.11546851749269144 0.899978013413267 -0.7807319990457001
H 1.3089292680798374 -1.8610661605768304 -0.4137562720352181
H 3.6175027957514487 0.4477351838962048 -2.3432345110575317
H 4.132354331021396 0.7911663436035146 0.7035178807975025
H 5.355515225911639 1.2202771215853712 -0.507404959127017
H 5.108292686761428 -0.5015579416048253 -0.03945332983805822
