23

C 4.444599795824152 -0.030752467960058073 -0.20705810575329064
C 3.2567760630063294 0.34839861407855793 0.1960001049390503
C 2.0802798977236074 -0.05467150861322107 -0.5429609232771616
C 0.8588898562318263 0.3035632075423849 -0.17473055680676558
C -0.2826187159480524 -0.14886691116401066 -0.9813994790245332
C -1.2327158113160075 0.9391728026690018 -1.3065595541301671
C -2.418834663548868 1.1348545050957588 -0.7519053629833219
C -2.9211878131459517 0.22095539039106918 0.30620528358515253
C -1.8857879431827487 -0.7353101177421946 0.8276481545804819
C -1.0308539279703544 -1.2646401618000715 -0.317628387254918
H 4.561103840591394 -0.6489843742958873 -1.0959666239184085
H 5.3636407559185635 0.24486649597385776 0.3128464291382728
H 3.1309374439550464 0.9572507113748545 1.0700188066528558
H 2.2283908724947885 -0.6741668407434419 -1.4297064134783217
H 0.742680238958376 0.9169929480675454 0.7071846751859587
H -0.9374885328426157 1.6696871614735596 -2.088416926069441
H -3.047714258180979 1.9938690702909876 -1.0803589428003761
H -3.2642670153892306 0.8597262135615795 1.172758187409572
H -3.8480366674974635 -0.30309443006533926 -0.028375540364764147
H -2.4471652508611297 -1.636586221056879 1.213828600777321
H -1.296087680985386 -0.3276225987399394 1.649608461534499
H -1.7067499785619458 -1.7440640700205692 -1.0312933364729686
H -0.34779050527330824 -2.020577418317387 0.1181822667651207
