20

C -4.015776367421912 0.6571974320341839 0.06442644803025202
C -3.015135011465115 0.06548188992425917 -0.5489075065200226
C -1.7982570191366103 -0.27590025143519575 0.16410199282507956
C -0.7768619130766462 -0.8752160164976989 -0.44389326432845366
C 0.44943798244065675 -1.2104263285409138 0.30865224178031786
C 1.6177030398490049 -0.5269674123376914 -0.2789649476331376
C 2.317232503554238 0.3116806904707684 0.4499879701163459
C 3.510399562149088 1.0332708577347087 -0.09083011295975006
H -4.895591707785384 0.8881488100565986 -0.5123024844156233
H -3.9325259229865197 0.893377169185929 1.114315109261071
H -3.055619281631058 -0.19224880740300457 -1.6105912933809323
H -1.7488524850935192 -0.022248645244791955 1.2249254252860002
H -0.8760385740613328 -1.1046138817798687 -1.494152267321766
H 0.6154045059386889 -2.3222936065237985 0.3467358865508877
H 0.30986487639627086 -0.89415617014129 1.381808147885699
H 1.8989110963267812 -0.7100361978221238 -1.2952743413126342
H 2.050805702807458 0.5119530440870517 1.4803783203381433
H 3.5314417307499455 1.027602634869866 -1.1912618476987253
H 3.379657185072916 2.102818829152761 0.2290038358337884
H 4.433800097373005 0.642575960210277 0.3790397041384596
