16

C 3.0272581817126216 0.3863418297943006 0.017755717202366007
C 1.9447133844489957 0.5495669093554916 0.7437857965104545
C 0.6215862188417909 0.5390188139089767 0.08955138450610427
C -0.21451899385950232 -0.5956653059854645 0.6779182820888291
C -1.560692183031428 -0.6175586456886304 0.022165391662378048
C -2.679907918248989 -1.242572298724896 -0.31756088399161975
C -2.6134906991679423 0.12152630085530387 -0.7467296033441954
H 2.9521517556019776 0.24667435621690176 -1.0400894711820539
H 3.998264108407462 0.39102413652101625 0.4754043069506529
H 1.9487760341033724 0.6959639763936831 1.8200111379331028
H 0.689838415791469 0.39361600149471726 -1.0112060825432576
H 0.10836336980800795 1.4932240756806163 0.3315764641908525
H 0.3052308718871581 -1.565617940283447 0.5736344759693771
H -3.1993390772186445 -2.2032017599739806 -0.24816982550960448
H -3.05996499049946 0.9653518442660387 -0.17307401885773385
H -2.2682684785768603 0.44230770616938403 -1.7530234218885195
