39

C 4.293608020619196 -2.999348240872806 1.0958464842629903
C 4.600021338546802 -1.7068796579295618 1.0863053238127698
C 3.670952524227553 -0.6503450451928583 0.8942746950444688
C 4.095547341325978 0.5889223352815309 0.9055889192014552
C 4.568715447437805 1.7857361564143275 0.6208641671561784
C 4.9238040054276055 2.0325596105405257 -0.80659588812277
C 2.2500294860114685 -0.8499100172824269 0.6745734907473533
C 1.4033125778680577 0.11663532743547096 0.4994245938804625
C -0.029218130686226033 -0.03167735371385152 0.27577090088054046
C -0.5953203664109799 -1.2074859701763938 0.23290771884941738
C -2.0436790988376208 -1.4497419150916209 0.010539186536353762
C -2.479902013647013 -2.680655317950384 -0.00928943888712856
C -2.9259042161429063 -0.2819376049716262 -0.1784994427523085
C -4.336084769873028 -0.4986571517108739 -0.39601118137595165
C -5.3321032879782075 0.29223205163776794 -0.5882436648619899
C -5.377991849152047 1.7422357557110737 -0.654935544614241
C -2.306734473030651 0.8807881977773084 -0.12658419593748949
C -0.8928270377101296 1.1486977020468836 0.08920489451785593
C -0.3348815201560157 2.051975564934768 -0.9692755789679574
H 5.037572688384066 -3.7480145245857175 1.2452913213252281
H 3.282759220925506 -3.349030746757698 0.953518075400346
H 5.662925328821411 -1.454442825322634 1.241100822534296
H 5.396982260898902 3.0161950525063794 -0.9424387874143894
H 5.693179861843681 1.2721497925327496 -1.0701984348846096
H 4.05807120753323 1.8548273176080692 -1.4653118943604204
H 1.9290929045835006 -1.8776008049768114 0.6649811124712415
H 1.7936601228829436 1.1395189011012943 0.5203325142594444
H 0.038249615271616515 -2.0960703538243854 0.3707100804040562
H -3.4893615071929416 -2.940495987920874 -0.1605674650882662
H -1.7529074104596665 -3.485921542245847 0.14005517167275794
H -4.648355721252503 -1.5886889180786257 -0.4015452645572049
H -6.323150160720885 -0.21613577287369473 -0.7264017252691749
H -5.083173297484263 2.232905230993779 0.2710208279466143
H -6.460787719359685 2.084608625356007 -0.8548112310527712
H -4.7918804587466886 2.101521905737624 -1.5245260429728125
H -2.9630122186842085 1.7573994558106178 -0.26738417176839896
H 0.5452299953034118 2.625443947625987 -0.5643331238534113
H -1.0903225594573285 2.844426605849409 -1.2220917148157027
H 0.013883869131898801 1.5442602145512716 -1.8702020147194571
