37

C -0.6265463982405164 5.379433223981501 -0.8052772738410763
C -0.7841540119157104 4.127318320917503 -0.4277751207020197
C 0.18315318082364565 3.108036663802849 -0.7889901730315289
C 0.006181376462370277 1.8767490041755688 -0.404372087230252
C 0.9449306400122139 0.7669735797872731 -0.727829166558984
C 0.16429135687997867 -0.5209885100301093 -0.8930728888360859
C 1.0673308316728907 -1.684406860497276 -1.2224071840322515
C 2.0811273750448116 -1.9648797471939132 -0.20683835839171616
C 1.9772300521235053 -2.5969987261120666 0.9498139799803847
C 3.255825242633385 -2.636980873099092 1.6320687628870487
C 4.178973265970644 -2.0310913960338524 0.9136331384726901
C 3.502242392726196 -1.5544197671414957 -0.31660467303359313
C -0.6681674854539452 -0.785730530078352 0.30307179613614293
C -2.0042736422220817 -0.7887205490280004 0.27482950448883303
C -2.642557045226672 -0.5115852602308724 -1.0253064123225635
C -2.7669509965094403 -1.0486604481227768 1.4511555184366123
C -4.0760635645794085 -1.0653624296457664 1.4869169535405553
H 0.24303098270091922 5.635107853822698 -1.3933268422655016
H -1.3318974468559701 6.157858525731963 -0.5497852944055236
H -1.6757746647612148 3.8992979053549894 0.16752605489245437
H 1.0447226961135176 3.366723601429868 -1.3728270175695245
H -0.8658493481300606 1.615022754430889 0.18651790932089213
H 1.61458846688495 0.6171378816613686 0.16306827766907112
H -0.5185212872384399 -0.392774933421058 -1.7560354041955448
H 0.547611455666904 -2.541337406297936 -1.6378380331546993
H 1.0633493392131113 -3.0422474986094574 1.365872911739657
H 3.4700806122196344 -3.09463626636738 2.6067423048039284
H 5.203637519813919 -1.918729620358429 1.1849274506645713
H 3.6370210607326756 -0.48809643425431437 -0.5039776649116525
H 3.929190145522562 -2.1696690415803626 -1.161732170917965
H -0.16872730818753653 -0.9868451143914683 1.2479573202013023
H -3.74162661431613 -0.515399985258415 -1.0171934784608938
H -2.319813511759407 0.48845299639693646 -1.4321342606616119
H -2.3444279487321165 -1.2818037436882603 -1.791012553665241
H -2.246654750679096 -1.2522464988068083 2.4077871885533293
H -4.735966676385516 -0.8896615742080938 0.6546342865627316
H -4.596545292024835 -1.2748390970384935 2.437812699838702
