20

C 3.5934713858155143 0.6001679444891295 -0.25533209224327275
C 2.318005076958276 0.7674065667313604 -0.0007684266352688844
C 1.360307884374197 -0.3178183716857624 -0.09053952276292294
C 0.08877430268475982 -0.18764820716190528 0.1550138893627774
C -0.5725866992373801 1.053703622266323 0.5553804687389906
C -1.9064468229869687 1.1543475385463458 0.5588212819656995
C -2.803106582418967 0.03765085754199549 0.16500098643255118
C -2.0205024175193738 -0.8613337860074021 -0.7669042924379352
C -0.830242154943577 -1.3783627950713417 0.032273011603272124
H 3.927381091154563 -0.39123744895047935 -0.5418239561924014
H 4.339444041698885 1.3575753689367909 -0.20581414287789637
H 1.9710597115984516 1.7439758915920744 0.2840204529141933
H 1.7306230832744571 -1.2998796425795105 -0.3812647011187124
H 0.04124184999777817 1.8880345931208642 0.8496380496212744
H -2.3856235956624485 2.078273719181542 0.8569881040867601
H -3.1231253223044053 -0.5689336936438558 1.0368794452862848
H -2.612882075128142 -1.6632740986584598 -1.208133105991294
H -1.6099371690216284 -0.17924293726568355 -1.5682238551555698
H -1.1721647388828713 -1.6075904718397407 1.0626826419500672
H -0.33369084945099564 -2.225814649542282 -0.46009756120938594
