21

C 3.5507401648832544 1.026157106421566 0.11609396997247579
C 2.532397974849266 0.5227965954913139 -0.531411400549951
C 1.3268293006134824 0.1689322006020872 0.16326701090199056
C 0.2529185222184204 -0.34860535178498997 -0.4394341658999396
C -0.9637836598551419 -0.7009093207665371 0.2909655366119491
C -1.245389246152559 -2.1797149079372415 0.16332485959350798
C -2.1872686886476984 0.03985836098317633 -0.17418567347372169
C -2.0415941570232348 1.5407619371830463 -0.026355494406157504
H 3.5021891983445568 1.1833867118305974 1.179359216263589
H 4.451908586035063 1.29193594113388 -0.3957499576401316
H 2.6067507296306123 0.3760010794997928 -1.592012263116818
H 1.2695352850348596 0.3223955402533537 1.2241103915147737
H 0.2913012442217632 -0.5101646635208833 -1.5053734996215953
H -0.8077825713752743 -0.4975144726695848 1.3685522953458573
H -0.7995686684221999 -2.728687429427832 1.0412300524162286
H -0.7833719929972207 -2.6179572103725457 -0.744040628909305
H -2.3386370376977967 -2.3778024629765753 0.22490073451510711
H -2.544268363103653 -0.2610954911986209 -1.1586781809765063
H -1.487767332691973 1.7512917443400409 0.9089393554160914
H -3.0618380797793763 2.002313158397247 0.07604005006594781
H -1.5233012080850394 1.996620934518675 -0.8971281665150256
