26

C 2.9997693330832984 1.4079553605209922 0.8281923866487725
C 1.891322084381245 0.7252096827139124 0.4936932102544386
C 1.85074418569958 -0.7270318742970832 0.7910589950131718
C 1.6523886456027381 -1.4759807180608282 -0.4516490265502421
C 2.628610004367747 -2.24548708887995 -0.8980958081864633
C 0.44901458390209303 -1.4364350492818467 -1.2060700379762532
C -0.5089862580740554 -0.6995224212214123 -0.7758938658142287
C -1.4904893432356352 -0.026109727562427288 -0.26728904553248267
C -2.4162658999484248 -0.5254030753751932 0.6860614814723892
C -3.41361056211526 0.3464335634581987 0.7609671293400453
C -3.1866018328714514 1.5014595334895848 -0.17063490605343176
C -1.729643092650362 1.353556564355038 -0.6488074390340909
H 3.8432429892732682 0.9164566248589241 1.3020487834485324
H 3.016754361718879 2.4577345159210693 0.607880473989369
H 1.0652184147036956 1.2166569861416032 0.023346452781207498
H 0.9858568747180028 -0.9402974707991395 1.4807337350451553
H 2.780021019959002 -1.047557076475883 1.325517406928169
H 3.5494112923127044 -2.313131492909773 -0.34990512407737545
H 2.563845638314853 -2.834089418121847 -1.810481302638327
H 0.23977705751270276 -1.9664464127735921 -2.1203979668065123
H -2.3364464870205968 -1.4333759270527866 1.247099712437971
H -4.297557732078577 0.3080891968977993 1.376117274218416
H -3.3399156092825115 2.4316718503149835 0.3813891128696129
H -3.8960239876671414 1.3596185989463692 -1.0043148923533405
H -1.7780863077501594 1.521860273211026 -1.759771590409336
H -1.122349372855597 2.1241650019824196 -0.1788042003772059
