30

C 4.05930682340462 1.6814873304583888 -1.0420111594370811
C 4.45107275518969 0.41711787493752855 -1.055316572005569
C 3.536386798466462 -0.6958750296683057 -1.3838647847859924
C 2.1532402647074207 -0.14154880027410274 -1.6241512852663311
C 1.1783296607750915 -1.1404675336506258 -2.0083773272453027
C 0.43326488603116414 -1.6205112364226144 -1.0722396260687956
C -0.21955318147116745 -2.1781327940409816 -0.11073042607394484
C -1.4469284872375192 -1.5197257643841426 0.23147489754163822
C -1.404134763772166 -0.5837239613834486 1.1522445422107521
C -2.609073467755724 0.15140426835200663 1.5745431722517635
C -3.7901580313941508 -0.35661211840470547 0.8049046336809447
C -2.400279858755123 1.6166601481611005 1.3021851918598504
C -2.4528646406361694 2.4717895609326015 2.3005339890589567
H 4.752493378618363 2.4791587251042597 -0.7964758560999458
H 3.035347349540073 1.902622351156897 -1.2859771809682126
H 5.506184595192526 0.2034501505457427 -0.8088162805797261
H 3.4643307984962726 -1.4427278524901928 -0.568740140504829
H 3.8353661938026575 -1.2490975102819983 -2.304286751035597
H 1.8286593522649106 0.43686091677045485 -0.6976077332109405
H 1.1064691454708773 -1.4368339724396668 -3.0045848075391866
H 0.046300564814842654 -3.0282085446141624 0.42478274193293947
H -2.3937853041192296 -1.7694697085287436 -0.24155067661669233
H -0.4559686408513055 -0.3409491743868207 1.6186966076421132
H -2.728270675106476 -0.01179834569823925 2.66630996704256
H -3.653319834204685 -0.2148650512207793 -0.28216679391204347
H -3.937594300619649 -1.4354791624278225 0.9877154828738295
H -4.731485705042068 0.18171178902419388 1.070197108397496
H -2.212329340245265 1.944077579202343 0.3038324824911887
H -2.643900086590933 2.1505788148662512 3.3240008286879874
H -2.307106248972101 3.529107050806856 2.136572761446829
