21

C 3.624962254418425 0.5751056002777664 -0.12087107448299593
C 2.511065641351876 1.1135062542537308 0.2792743488085161
C 1.3136686701423825 0.314235698122634 0.45562213075248886
C 0.16989446618706966 0.8935096687073328 0.8725295379453036
C -1.0835793510298046 0.07509207867131998 1.0593346630533038
C -2.248708302307961 0.9256114062509782 0.6463063644985628
C -3.0452079783872215 0.28037694468379676 -0.19197515934378864
C -2.5044561166620296 -1.0798527405630474 -0.43695407871503156
C -1.0914344736635087 -0.9603606525791821 -0.05092873746029036
C 0.0317001541299045 -1.5217537594291326 -0.4494954765583427
C 1.299617575124338 -1.1271890292730624 0.20348214565722364
H 3.7453192654827516 -0.4387255460534104 -0.3400165851248984
H 4.494532215533055 1.2398377495263042 -0.2335003749990263
H 2.4289958085431564 2.195511611390422 0.5007298939412992
H 0.19424309392124697 1.9500327205109445 1.0623007177659909
H -2.4475947696898803 1.9492606699304027 0.9739159401158446
H -3.9658704110602137 0.6980014856266711 -0.63423981472868
H -3.0455948970716817 -1.8474697315096305 0.19139300669870998
H -2.6434463099529966 -1.3890589822694657 -1.4970075269591694
H 0.08177470636090652 -2.267407717231008 -1.2401438454281006
H 2.1801187585690127 -1.5782637290995727 -0.22058240170970336
