52

C -7.154456938271318 2.7209712346284354 5.669292686753586
C -6.686750524673799 2.497895577751888 4.4583696424557
C -5.351364294093939 2.9632513715815194 4.169710970609276
C -4.914810820644888 2.730863848734619 2.966899738471841
C -4.507768405157913 2.4233787288453867 1.7716898871600464
C -3.948935580291063 1.062051469106979 1.6189588141216216
C -3.1172636517112666 0.8010348383351589 2.7909357893023565
C -1.8577749768417753 0.7116646946184145 2.4206631598208523
C -0.6132229161142256 0.4578624332301069 3.1964451226525266
C 0.574813520960929 0.40587483484930426 2.6042878472942244
C 0.6114449278205573 0.5991151070793012 1.1945861465904715
C 1.8004725371980999 0.4996506829479346 0.6576982998983515
C 2.9402607029053174 0.2339780488280133 0.08662548865751225
C 3.1652842737953306 -1.142754975310212 -0.3224591844893676
C 2.478913757666429 -2.142852419704405 0.5577957283791524
C 2.7561250839327225 -1.2784331133594382 -1.7756072903713034
C 2.967928690191991 -2.6529265524869587 -2.2594501605127935
C 3.729621573295157 -3.043133953494192 -3.24448830121727
C 4.52792477734563 -2.145081518873603 -4.0603054087939
C 5.288520498318429 -2.6259428207766855 -5.060809108442259
C 6.083318444563282 -1.7236600644040845 -5.872223138483051
C 6.826414895190753 -2.189041441415 -6.85111509566374
C -0.45033293006999664 0.8751555663394015 0.25773581943693097
C -1.753463328925879 0.9102433483641358 0.9867472438580864
C -2.9887073699304514 1.1226638569100813 0.5069573808321046
C -3.2407523199928514 1.3727276291538353 -0.9422697194344127
H -6.592036194946665 3.226865531007871 6.438075384209483
H -8.145823047262777 2.3864694267494393 5.915681883446307
H -7.317399779189563 1.9835019717482207 3.7559083443367642
H -4.6824469259584305 3.462430432569474 4.80157975866435
H -4.6245785559129216 3.176466117528219 1.0513954604787323
H -4.742896309944623 0.2999453137694168 1.4608589536582894
H -3.4570864706747946 0.6939687738804278 3.8081829141055343
H -0.6938603789412725 0.3141446023279965 4.26602137826964
H 1.4801029980663067 0.22077313314234745 3.1997648475005325
H 3.5558696171977813 1.078711056408761 0.001368709297174438
H 1.3996603261542007 -2.2053507032195743 0.2353989896010576
H 2.947837225691903 -3.1229426628767727 0.47942115043523775
H 2.519924515123047 -1.7792904437548174 1.6112351175330644
H 1.6906021401717717 -0.955149996464608 -1.8959870077082206
H 3.371407473049725 -0.5849599262857935 -2.3683864904186147
H 2.4132605137469385 -3.429678887949044 -1.7169661896135744
H 3.7604515873197273 -4.1289667126205405 -3.4637698675788737
H 4.517376304048389 -1.0892825547244454 -3.8719564965617157
H 5.293653320588199 -3.6838329435837944 -5.241209510000119
H 6.032341107344718 -0.6575167814098256 -5.631467034018392
H 7.406168050273054 -1.5063836003985431 -7.439146013084024
H 6.844117263966821 -3.242710200531088 -7.049113022088327
H -0.27611789407053644 1.7928653556707217 -0.3278108498626834
H -4.292962169036846 1.6795956968859995 -1.0933206837388572
H -3.0478208169947565 0.4748141623815611 -1.5652963379161509
H -2.5251835263336746 2.1509574282412847 -1.2870075678775061
