37

C 1.7630126963581547 1.6042333071968884 2.2973509833940455
C 0.5229688115098526 1.257402181830811 1.9035341174994498
C 0.34945627384148437 0.2393291229806887 0.9127969721346749
C -0.9400954323627054 -0.005338962627634823 0.6416918096875638
C -2.146720212226845 -0.5716531509714842 0.6589954486607171
C -2.254859750887505 -1.8499455888645002 1.2715422046801754
C -3.154789777625326 -2.137802538796845 2.179336998883992
C -4.089467334535 -1.1082740124901416 2.5922556050141634
C -5.015613386691631 -1.3470076845753478 3.481019627071978
C -5.110936529103919 -2.7006910053158815 4.077691050688887
C 1.2663571282820343 -0.5560802921191922 0.172984216963338
C 1.9314451749240102 -0.026041697041162246 -1.0079344458028698
C 2.9471988324534317 0.7652268870656004 -1.0085387418306018
C 3.711280360287516 1.3738562996582429 -2.0649608532633024
C 3.6734236779669325 1.3720840349606043 -3.3267335639747952
C 3.5733902487853797 1.325646145014506 -4.739681508770172
C 3.4070411876269775 2.7898949783389795 -5.233868935840762
H 2.6040270306718187 1.1033053046837071 1.8543976283081278
H 1.9687330950532813 2.35200783801297 3.0164471604801815
H -0.27400599243799223 1.7924887402408338 2.3819982051142685
H -2.838959794750323 0.051518658033444 0.18801452079452372
H -1.5574101227007957 -2.6291152553216297 0.9787935099240835
H -3.1581446410918854 -3.1502030551042894 2.587723053919274
H -4.01969001315509 -0.10811731123002943 2.167245608556379
H -5.699375510225816 -0.5632773967205034 3.7773655787362177
H -6.092955987336887 -2.8343402787597642 4.5884973909878015
H -5.017461146846775 -3.443660792243804 3.286994426966872
H -4.350594544065779 -2.7923614874437708 4.8937897024179975
H 1.8941522736131253 -1.294662129759306 0.6800597381927571
H 1.4982913004329443 -0.3584403361577042 -1.9706360718121037
H 4.564489449462599 2.0111983302146643 -1.61022240023575
H 2.4927292865536863 0.561828943276291 -3.22380285934312
H 4.570691022000623 0.9942141831619842 -5.199912546922102
H 2.8337607462454746 0.6882080540727852 -5.256914213354969
H 4.425095492181003 3.229909673270357 -5.062451608544548
H 3.1004290967900374 2.830265505415497 -6.2838955750188825
H 2.623106990870062 3.237138764818466 -4.600972234109745
