41

C 6.93272817656082 -0.055115658307185976 1.6882375534004186
C 5.693594791968913 0.12164429548907539 1.2750509114867037
C 5.1814109738651695 -0.6122598784619188 0.13147014739788185
C 3.934687993234182 -0.44748873109979165 -0.3000170237189781
C 3.425630106127431 -1.1719943623379165 -1.4307069597386919
C 2.292942211085336 -1.1718698262717124 -2.020123428955051
C 1.0311610248364522 -0.4602888913787144 -1.8368659215076635
C 0.9501575782696472 0.5522900783152173 -0.8322807207685348
C 1.544446466826624 1.8870572298998842 -0.8166031268704059
C 0.2507467179744518 0.28114222204555384 0.24126050368040053
C -0.5602593940355207 0.006837585845769176 1.2430277411042623
C -1.915273385898231 0.38245222469594603 1.0509135892191892
C -2.3206489773734655 1.6898088521476355 1.2150063988498998
C -3.632719741974379 2.0855140052096623 1.0349243755912485
C -4.584498430674357 1.1391203890474404 0.675595969117165
C -4.1944536918235045 -0.1558957037769139 0.5108278907030822
C -2.8695618353821404 -0.5371904736347698 0.6960602118825874
C -5.207267702248927 -0.9358336931917569 0.17057582746244626
C -5.161667611749934 -2.415649890282457 -0.09499776674042607
C -6.397511024476168 -0.0832415604367431 0.09873626476484756
C -5.890505243276656 1.2663694556936254 0.4469146190661884
H 7.585889595750482 -0.7424515412622688 1.1897694193288217
H 7.310792362568281 0.4878463504689927 2.5338521962133234
H 5.021070352724121 0.8209861057460197 1.778205246990877
H 5.795665150336798 -1.316715789125972 -0.40728059457314547
H 3.3339605991591874 0.23020090112761912 0.2518084607748678
H 4.1888054837332716 -1.874227810285789 -1.8726480863415302
H 2.238788858653489 -1.897431725983356 -2.9047697159239316
H 0.7018715560248026 -0.041072589910936985 -2.8637842047168727
H 0.2526701079413087 -1.2631198210717467 -1.6923420301717238
H 2.3620721840244014 2.0164102604226986 -1.5575917108560577
H 0.742666729746295 2.6172976617329744 -1.1307143570979914
H 1.895108213889205 2.1755236853717004 0.18252442809548403
H -0.0579359589507911 -0.4560928693142961 2.0383098356529588
H -1.600590834482448 2.4494980507548307 1.4949591240461326
H -3.9539742866775534 3.1097803653422624 1.1627843162849858
H -2.5443400601734263 -1.5602174400158464 0.5692022557658613
H -4.4951897132552725 -2.857009472289762 0.7018732886040663
H -6.178755695559767 -2.82406448659675 -0.04803360709574901
H -4.661766167238807 -2.6366625176495777 -1.0588308209756863
H -6.439947480053539 2.196115013330233 0.5131849680884528
