19

C 3.2499641096100738 0.15906417844351267 0.4679625397426251
C 1.9518338991493849 -0.026621353098633272 0.5272123307374791
C 1.1299376580655938 0.23677711310220145 -0.6787063734498652
C 0.39899962542538664 -0.9542074453785037 -1.14517094300055
C -0.7653898893148261 -1.2358951991822331 -0.6247930279896953
C -1.3505756486005631 -0.37416555602462626 0.4212599519451552
C -2.084043368740013 0.8974841429109558 -0.008587701303149464
C -2.8677742908642823 -0.28469506971398395 0.4223609341311589
H 3.699324319925471 0.4976542774656725 -0.4479080778502764
H 3.880756749504605 -0.021403985890202887 1.3226620990157296
H 1.519448436284752 -0.37055604482415727 1.4679992150382724
H 0.35112466495916245 0.9998155363224004 -0.3722835434148831
H 1.7701043517316113 0.6804467168058171 -1.476499981080361
H 0.8196478121962832 -1.581010140775608 -1.9029405530637216
H -0.8770073717443264 -0.2959461670274629 1.4197510309403074
H -2.058613383950711 1.7715726208894436 0.6808020877757918
H -1.9918237228360305 1.1034837548335452 -1.0852193201287124
H -3.362275142625503 -0.33442423091634155 1.3956726240031432
H -3.4136388081754703 -0.8673731479419724 -0.3715342872123135
