29

C 1.8117769672169612 0.6710188174738304 2.2118652583412053
C 2.404415905083711 -0.434226550464235 1.7850548081619095
C 2.1885481485257285 -0.9368714401089563 0.4151980791801634
C 2.734552484970141 -2.0233736702151845 -0.09299929705893469
C 2.306109814286364 -2.223094340899205 -1.4673644011017486
C 1.4982308285179553 -1.2457069889533867 -1.7773633343110469
C 1.3362989121020454 -0.33226586119376517 -0.630405594167469
C -0.0679829269110474 -0.1674002948779842 -0.21799226181655368
C -0.7607182433407279 0.8894262926874453 -0.6129665483859591
C -0.45793548113613325 2.058877946713189 -1.441089779859752
C -1.5387544199213976 2.8334467896220303 -1.5210139068351112
C -2.6054441946506866 2.218360905558301 -0.7536157411494961
C -2.1728604565730243 1.0910653125080996 -0.22026154818594013
C -2.855422355218415 0.1130107642014076 0.629354517838245
C -2.0038582675068413 -1.0144459063230535 1.0095776315954594
C -0.7439095842148383 -1.129605437635194 0.6194573600023663
H 1.158069288251205 1.2106066752753812 1.537612981497026
H 1.9379137189730067 1.070445367211028 3.1904267315377273
H 3.043588531767972 -0.9585676754566704 2.449828176844656
H 3.417274249300803 -2.664133682901396 0.4811060330888978
H 2.650493608942362 -3.069927804923859 -2.060106141511422
H 1.024695277033317 -1.1428838034192152 -2.751182706926302
H 0.517788317690913 2.211418489366409 -1.891463185398261
H -1.5696045284471574 3.7673136464496055 -2.0825985493550454
H -3.593663852851226 2.628991032022808 -0.6441376189665415
H -3.767706820432918 -0.23769589985103548 0.06998527417151489
H -3.209562235712315 0.6049972524560905 1.5787140986114954
H -2.467827087942256 -1.7822591170250737 1.6502732762104986
H -0.21450559781112 -2.0065208173266798 0.9637992422055374
