21

C 4.558060789019566 -0.21288828148308084 0.2395225265413654
C 3.339225542415622 -0.1792304396711717 -0.23667153685654674
C 2.2235314176704746 0.39320622833821783 0.48819214015663825
C 1.0067452323131845 0.4147144660413817 -0.01311101154134256
C -0.09323232191115904 1.0061690723094856 0.7595874085119239
C -1.4151986100407188 0.40618018247488746 0.4342353040832429
C -2.007820530347263 -0.5576237599058816 1.108747863461289
C -3.2896701824150347 -0.8687132891651216 0.47366983367161586
C -3.3727828854965125 0.052483884522337834 -0.6789274209767394
C -2.2749036318485247 0.7788707991690196 -0.6780406937644259
H 5.38177149308092 -0.6427777690323682 -0.311202535333094
H 4.788885024780612 0.1948647436096156 1.2172049058035672
H 3.156482481660384 -0.5995809085548973 -1.219736194797976
H 2.4284274879548877 0.8065941961419592 1.4663109451683458
H 0.8489516342270047 -0.003934013322661954 -0.9813096002090409
H 0.13294937650509012 0.9984124524427576 1.8359132331090502
H -1.6444423296818746 -1.0781182432813612 2.0074111313416627
H -4.163439416589214 -0.6745248074531115 1.1404315383780015
H -3.330337933448065 -1.8975747339128777 0.04924437033076854
H -4.211452944745221 0.10772764216856061 -1.3999597097281566
H -2.061749693104168 1.5557425785643055 -1.428598433910542
