16

C 2.6110966818651935 0.8504452267106913 0.20830261256719476
C 1.8648094801999684 -0.15300602766005938 0.6352517576779865
C 0.7707472967241882 -0.7616682643833944 -0.1663869568677316
C -0.5492390595777831 -0.6336215164604154 0.5569322653164808
C -1.7088201824286382 -1.2489630701573273 -0.23444837934897544
C -1.596008989969183 0.2431675292227822 0.06992030168706426
C -2.1975606510606984 1.4110207911885893 -0.10454163805995026
H 2.471071394535343 1.3017009631432854 -0.7702168129787993
H 3.3906383770609714 1.2504798751386619 0.8351837760349371
H 2.052535778036191 -0.5597030768647663 1.6188956728402943
H 1.0039021956253946 -1.8579081601478984 -0.23110121955813354
H 0.7295719554517847 -0.39245703073959115 -1.1967711609887244
H -1.5797230388279744 -1.460825691016327 -1.2938342279172874
H -2.4050244508645138 -1.8331803815924688 0.39647815540411546
H -3.1242328486628264 1.5531890890914777 -0.6363337737910748
H -1.7337639381073913 2.291329744526741 0.3126696279825668
