22

C 2.933308462573139 -0.549800157657329 0.29923117775344976
C 1.8690218465807016 -1.0199662679794443 -0.2687197692863996
C 0.5445636543853672 -0.5072122129981276 -0.21027619473212383
C -0.3378606184061601 -1.2791350098625671 -0.8791609849451248
C -1.7772430472696075 -1.1650573631208727 -1.0926580140682074
C -2.7789313416471297 -0.6496961474682141 -0.3756445544254758
C -2.828083516684658 0.020202846467630303 0.9415420588330885
C -1.7865636486779737 1.0468170015935603 1.131278491517834
C -0.5015667579159375 1.1727141912550973 1.386572156606762
C 0.3672992536255401 0.7563933502717218 0.4858553494237624
C 1.3447912309739483 1.7961861362067677 0.06859960809446718
H 3.921830383769172 -1.0744516046772328 0.15197355067119403
H 3.0316111544937177 0.29447934923588304 0.9552589956493861
H 2.000428547561836 -1.9275466208229903 -0.8877731944776037
H 0.11514935378745572 -2.1515158726406036 -1.351546581389124
H -2.0998250892483328 -1.6035131220449945 -2.043359289679266
H -3.754255952778395 -0.7473234331001183 -0.8696602706231767
H -2.6386096200206426 -0.7734990974820173 1.7061831535858696
H -2.2098503175304125 2.036225857923408 1.028039262288644
H 0.7216122644723798 2.6136728169529775 -0.44992104053748433
H 2.0531156123146745 1.4962084371725484 -0.69305857597992
H 1.8100581456414253 2.215816922774892 0.9672446657195102
