15

C 2.4463256055845877 1.1528428207496682 -0.2284477575439377
C 1.832943066460239 -0.015896367157887344 -0.2790533301532378
C 0.38773897074583685 -0.05036016929510843 -0.06309544874000893
C -0.7479091192254632 -0.7911089629493615 0.018631115904756315
C -1.3397152585562728 -2.1376788271649994 -0.05718652389420774
C -0.8674900277930438 0.6426741568886719 0.21359120423179306
C -1.5095815049308605 1.7760656382340283 0.4511338074708777
H 1.9356028873555353 2.084073088492164 -0.03584018427006524
H 3.49642875306215 1.1949506286492801 -0.3832619273301026
H 2.40253273256156 -0.9096679300046403 -0.476039610536984
H -1.4984260587692875 -2.5511670349121567 0.9645515892698074
H -0.6754999281121606 -2.8423506137223145 -0.593256944018325
H -2.2746554981368443 -2.0692545049957736 -0.6396188202704176
H -2.5779919484433433 1.7822651771392053 0.6146948470974692
H -1.010302671802603 2.734612900049257 0.4931979827825826
