23

C 2.4099559890342586 -1.8846558618578346 -0.2577714944219371
C 2.323647340545644 -0.6257985554883937 -0.6461553398615244
C 1.0465580790261395 -0.12069850513453782 -1.1812296480252364
C 0.5044336045041556 1.0029318043773625 -0.3845385480873446
C -0.6494616488410425 1.0114613695367702 0.2379175710730646
C -1.6925595420401773 0.017590940699738333 0.3498018498483586
C -1.7150395519337092 -1.1749542126606132 -0.17407057927213432
C -2.789770208915774 -2.153415655603684 -0.03833347199138053
C -0.8201669788958212 2.352234670801457 0.9331062216432487
C 0.4022090788255434 3.0642540571859826 0.5984164400153524
C 1.1555509536444741 2.295043346135553 -0.15179701384106334
H 1.5911976617278671 -2.5913518472741357 -0.30444622580849934
H 3.3479497212591873 -2.302310270560988 0.14866696560976664
H 3.1971262172017587 0.006949200288736364 -0.5615006758410016
H 0.32628421723779055 -0.9392497398363364 -1.2335732810329754
H 1.2734026057561563 0.29901239350903364 -2.1954376813863012
H -2.5858317488528075 0.2733580636055194 0.9429971849040091
H -2.8829264976126177 -2.8379918804544935 -0.9050589481025089
H -2.6492521229582895 -2.7404780638546886 0.9027724445087092
H -3.7903543918381333 -1.632803101494349 0.023371676708144228
H -0.7762022374369861 2.0881640100545686 2.0302141252287873
H 0.6365671814118951 4.067812836236682 0.9246593241989693
H 2.136682279150075 2.5248950017879963 -0.5742802655981609
