28

C 4.350296438748959 0.8914153675389725 1.2768381616247704
C 3.526454423820192 0.16545702298501044 0.5185441967305269
C 3.509370779530455 -1.2543007673922497 0.49137089551524915
C 2.668300865937433 -1.8560464400688765 -0.28168070104718057
C 1.7059783705299054 -2.363734776227426 -1.0276434524485527
C 0.4531332801932476 -2.5544667172544684 -0.393806618157179
C -0.4053875341461984 -1.5371497215730536 -0.2754499933544908
C -0.03821175513995121 -0.24666320983995194 -0.801023348808211
C -0.690045747729191 0.8516645454977656 -0.7997029485887485
C -2.006488087800696 1.1167127480965227 -0.2593748055189302
C -2.625712395977298 2.3147841927367745 -0.3030813367951221
C -3.919044859804014 2.219982799484176 0.32626696134179034
C -4.124745971213917 1.0088120091315922 0.7594468466146524
C -2.939051067510076 0.2046127228321614 0.4320965531026154
H 5.045457550098406 0.3616573815158976 1.9073801413981955
H 4.336537062559791 1.964803173455688 1.2730249993351708
H 2.8486009960724186 0.7367279214669061 -0.09622106174857704
H 4.1283189872760575 -1.9295760439138618 1.0531015386728315
H 2.019447818411256 -2.5574509804595085 -2.0199567015036632
H 0.17869134737289624 -3.5164762151936917 -0.0016697714850232087
H -1.332926064195031 -1.7081908870449412 0.19964101906202486
H 0.9866619797903682 -0.19620318765483175 -1.291690998646777
H -0.17827950845250795 1.7195739438370234 -1.2769929244400626
H -2.1650537144002167 3.1850143715585775 -0.7593553433284727
H -4.583183412270751 3.0891790693811547 0.39383744708528096
H -5.018930713687309 0.6606290759961556 1.2723467176404473
H -2.4724255304366576 -0.17098320818932033 1.3765126613757395
H -3.257763537456692 -0.5997841907766923 -0.2657504943930355
