23

C 2.1858537340129347 1.7103470003306593 0.7950087147343327
C 2.4673272768797445 0.4143665315788604 0.876708441479315
C 1.8464772330341659 -0.5185096086556282 -0.0753380725563264
C 2.062000687584472 -1.8228432149085865 -0.0762528135976146
C 1.289018751583982 -2.4283116787669634 -1.148413239479708
C 0.6109578025169495 -1.5054618742291617 -1.7929640382621816
C 0.8996076865381987 -0.19932410776361376 -1.1727682018005314
C -0.39197838592593265 0.3445482409248003 -0.6599563870807007
C -1.2762397526827851 -0.43604072695322477 -0.037293652539890795
C -2.560598203290463 0.08632746085731352 0.4769985703581821
C -2.904757224533858 1.3411284146309699 -0.29987896112784834
H 1.5049195772355703 2.0680005582121277 0.03193093604789447
H 2.6025356540198517 2.4297903996431107 1.452979708767271
H 3.1387055539961457 0.07575961870698113 1.6319282937709243
H 2.7157344587867107 -2.3853615797027947 0.6117873505728623
H 1.2937823245747497 -3.518749402937552 -1.3645060835560223
H -0.05251900095206052 -1.6676107904090618 -2.6404543350423673
H -0.6494045539465766 1.386376649789761 -0.7776073285177537
H -2.5146259435267173 0.3791099258644748 1.5442404740179905
H -3.3733773746595364 -0.6655892740000524 0.31675710322050393
H -3.9885261753087087 1.5689973342657701 -0.2013208271922578
H -2.307003115405931 2.1741021978509965 0.14894333241532998
H -2.597891010531257 1.168947925670488 -1.346363545384712
