46

C 5.7419791173689285 1.5513499570877778 -5.916333535218066
C 4.6638459228380125 1.276857446964191 -5.231737871411952
C 4.617223771465043 0.10702542698860817 -4.3822666464507245
C 3.5116260248887348 -0.14146186254485174 -3.704011811575198
C 3.438387899207078 -1.2901106064829049 -2.8572763741992766
C 3.1895161272939747 -1.0458924158125875 -1.578216291687852
C 2.852639260529512 -0.6896357843236635 -0.37258851865677284
C 1.447432338095163 -0.5317487445792037 -0.11052741331339416
C 1.0243926544851227 -0.3811385161272176 1.152490865734858
C -0.3300327046772401 -0.21700472815922994 1.5371968407606926
C -0.5136431231600987 -0.08201794960471769 2.8440230151853587
C -0.6449518593874757 0.13211798564507243 4.141569140075432
C -0.588517740023392 1.5126338758599884 4.550977138941404
C -0.8180667009527761 -1.098764598615244 4.867165915986227
C -1.1538991804160272 -0.8038192809637302 6.3155616579105365
C -1.5448199974951473 -0.16335775038705733 0.8147154390004114
C -1.5632741088161897 -0.27719726477063933 -0.4954968603914136
C -2.7933100794691392 -0.22350056972259683 -1.2416969061432988
C -2.7201792120712827 -0.3621245649996157 -2.7167736460261107
C -3.9761592474043495 -0.05692778883336638 -0.6789850151026191
C -4.857467689688807 0.1402260520779311 0.5544680831279227
C -5.454694478990059 0.08084326788977986 -0.7765341868393204
H 6.59400755288302 0.8921790145345193 -5.836888262671896
H 5.785783783996696 2.428696824328232 -6.557757597430706
H 3.808859596183487 1.925786385031139 -5.301236993877262
H 5.465203588792097 -0.5507569856956964 -4.3019136743094135
H 2.647203052160094 0.5077237157667419 -3.7711915508181497
H 3.543188697003352 -2.3144025977295675 -3.0603160588147436
H 3.6724920826016816 -0.5540318595837801 0.2820544425063722
H 0.73185666833401 -0.529692880375854 -0.9004131840565921
H 1.8386678437343198 -0.397049994446516 1.886790602232149
H -1.210349848957183 1.7668753129720312 5.436899902367074
H -0.9123517460175111 2.2139666990849816 3.757126040909193
H 0.49031753923295046 1.776948380539271 4.760206871626381
H 0.01839822672923251 -1.820188552223823 4.811444666548348
H -0.7680792647427037 -1.6279355277124852 6.943259335991979
H -2.277976638989667 -0.8058423856195654 6.4070712171201425
H -0.7645535145635833 0.1804781972513011 6.644784440532954
H -2.5192355112647737 -0.028771772660125056 1.28507027112039
H -1.7671657162624717 0.07922994792547101 -3.097039994487551
H -3.538001602299809 0.24908275875209004 -3.1521656731680756
H -2.7834408237467323 -1.4230357535743698 -2.9936299490692795
H -4.928437479017756 -0.7262585522826736 1.2396212180143946
H -4.735289993955186 1.138340077517526 1.0381359819449132
H -5.876380488188419 1.0112033473972257 -1.1999711829630568
H -6.042742997238095 -0.8288953857311759 -1.0356638889526502
