17

C -0.014119450885795512 2.10203313115768 0.8549865026730509
C -1.1047108578742313 1.516496620704718 0.38158104676747095
C -1.162352856353516 0.06618753216995146 0.24201322521232066
C -2.2696875043321985 -0.47244674378527657 -0.234142002008756
C 0.0028496949059702136 -0.7745855962657683 0.6294902621075635
C 1.036109269072795 -0.8032779278590518 -0.435468763481203
C 1.628997356531093 -0.2122887017995653 -1.4503440325076942
C 2.1388909924945283 -1.5668955565766758 -1.0848394960334382
H 0.824845484048474 1.509578634818176 1.1350064050951527
H 0.018137540450354626 3.172230336651599 0.9539288691725907
H -1.9521271752480107 2.1271242040939624 0.09974587559229914
H -2.342521436075259 -1.5499625634595289 -0.34956572635875943
H -3.110844461014361 0.14361984102246797 -0.513080312084843
H -0.38870925360729836 -1.7799809033230214 0.8442614591062648
H 1.7866892527667992 0.607009624533033 -2.1604044253954076
H 3.119701133735017 -1.6344737958523836 -0.5786369321208025
H 1.7888522713846118 -2.45036813622923 -1.6361741951130544
