22

C 4.136876422584128 0.7637864046716634 0.15913998999036058
C 2.931124887980864 0.3153716590197576 -0.10673112895114595
C 1.7609164606548355 1.1028073278483732 0.24287527811302495
C 0.5664157129194192 0.6352452636158668 -0.03211297781981671
C 0.4145808534779215 -0.6686839313439814 -0.6855822154940622
C -0.8123672084990838 -0.6868466942381426 -1.4933087080513308
C -1.980996491330626 -0.8223971171366734 -0.8952696691237505
C -2.0322803263870126 -0.9534206068930025 0.5772250483314804
C -2.851679453497729 0.18804551475416204 1.1383614966824704
H 4.332767075145945 1.7132995545294756 0.6380312598237433
H 4.9917887776568675 0.17330921122813067 -0.1038268785457272
H 2.796989552563336 -0.6284311676369203 -0.5805756873358577
H 1.843009814758321 2.0746628634630633 0.7288037085614087
H -0.2956967491685486 1.2163407139635334 0.22593281691181735
H 0.5957809275221507 -1.5457101656884893 -0.06781806476381219
H -0.7788611921457553 -0.5891204688601226 -2.5953848671012816
H -2.871726328016555 -0.8324561396016903 -1.5181006581105554
H -2.5418180122611385 -1.935301980985023 0.7908701952067262
H -1.0178003066403813 -0.9336987623150514 1.0106527519724162
H -2.310137836935582 0.6407218077614563 1.9955482115480194
H -3.843225824569545 -0.18186602129772414 1.4486683707448826
H -3.033660755781593 0.9543427351359102 0.3437953327099592
