29

C -3.6811344318970955 -1.6668120013351597 0.5631174457080145
C -2.4709217106823536 -2.117188071342628 0.29173589990044935
C -1.465372389827974 -1.237292578223512 -0.2839160885467852
C -0.2665996121412134 -1.7122794561035612 -0.5446359910209745
C 0.6997667283063298 -0.7621777536314677 -1.126079113063614
C 2.099808763199689 -1.2251217746007306 -0.9623308199087056
C 2.7100479247663576 -0.37820576077667617 -0.1608713649843065
C 4.145626501703868 -0.5403030273202442 0.2247042414847435
C 1.7729933597252177 0.6686721471778455 0.24219279323352969
C 0.5978650643895289 0.4697487513279735 -0.30442855494855603
C -0.7272283036001203 1.1507508007931329 -0.29225758730601603
C -1.8462129116265773 0.1624036455098756 -0.5581509517296651
C -0.7870117265842841 2.317528819575609 -1.1459731419289398
C -1.016850739696454 3.114132296796794 -0.1429468739855718
C -0.9863558690575448 2.0379534320088877 0.8513106719657826
H -3.958321786077973 -0.6298281566247055 0.3645430195716447
H -4.443373891423672 -2.28337120963847 0.9853965070024778
H -2.2563252869393007 -3.1606802268434633 0.5126617210014135
H -0.018885354331036365 -2.7163556103989754 -0.3461926489093791
H 2.473062225848705 -2.1150376327689933 -1.4522822199604368
H 4.320591586883471 -1.6042352456015059 0.4914586633005742
H 4.4333648465385815 0.11033210959428559 1.0485999580742555
H 4.7581388201625705 -0.3476636641972533 -0.6867768592989411
H 2.0041739421150044 1.4964612446052379 0.8985862580599929
H -2.0836491157277215 0.24752280418567957 -1.6435411688734576
H -0.6748435946322054 2.443715236669074 -2.2335865636149412
H -1.1714343319414244 4.207172295193321 -0.11560269024349096
H -2.000435000383638 1.9277796502552336 1.3221798439309296
H -0.16048370706866139 2.1423789357145706 1.5835525888533544
