21

C -2.6751813337014596 1.8258063628407244 0.3165279528742003
C -1.758766698837152 1.1653371480329686 -0.3805454814799772
C -1.9199343074606579 -0.2872784569868725 -0.5695202031053767
C -0.7702905348963359 -1.0425351533875085 0.0007306537908395498
C -0.6863479384056417 -2.5225714229256084 -0.05736685058379836
C 0.21517943574306891 -0.4064935685039337 0.5793773419044939
C 1.31814428854023 0.2419320513269684 0.8231465072104912
C 2.3758499028161384 0.9391367427383887 1.0762809484272453
C 3.6526777025529875 0.6578710689872747 0.3428681550583526
H -2.625915401887766 2.9038891460835043 0.5002208229299081
H -3.5261535556616854 1.3190650281795402 0.7413490031845352
H -0.9406476646001085 1.7395024395801537 -0.7717350716423833
H -1.998380686740102 -0.5373909793241475 -1.6473919492450912
H -2.8318483602566102 -0.6647119487934072 -0.06977906608336586
H -1.4533750157371428 -2.8880638205215314 -0.7562964698202288
H -0.8550783873304725 -2.8923098043364694 0.9732613889302592
H 0.3445115249296349 -2.8469510908938926 -0.374676496448967
H 2.3009430798770714 1.7210646791742512 1.8275363191717746
H 3.7244341242478938 -0.4658062188818214 0.29880053321609573
H 3.5853115370966173 0.9970601272816306 -0.7087480518658672
H 4.524868289711508 1.0434476703298425 0.880012259141569
