31

C -0.977403340131786 6.10087978578651 -3.1027890790714623
C -0.8828216516914229 5.64875084127725 -1.8733097020269074
C -0.6085909190405627 4.2231533242832615 -1.647559301514434
C -0.5052365714926971 3.732541052652932 -0.43096336804173385
C -0.22892832667703628 2.28950533317489 -0.27597431514368315
C -0.11585185498472263 1.7541285964153124 0.9170324644788167
C 0.14802587912821888 0.378225174609766 1.1446846148068641
C 0.24836859897871214 -0.09100460389468076 2.382186073769331
C 0.5131386626508275 -1.4687077790987388 2.664378749530092
C -0.31440620204197595 -2.317089684513565 2.0765620825532363
C -1.1072372425843906 -3.09537048302932 1.3668539131462747
C -0.7486127627328325 -3.2514702592065206 0.0023434065041168014
C 0.4332203354616045 -3.8031302369199445 -0.22932384386935284
C 1.5646747832756258 -4.4296496973401 -0.36454053709287226
C 1.4957809574644656 -5.880538653519637 -0.49228189937748384
H -1.181821693802636 7.164876833819265 -3.3056985891627377
H -0.8631048703979871 5.450964412449485 -3.9574675682113387
H -1.0023977946161586 6.307551506194907 -1.0278589225648553
H -0.48760620696379503 3.5621573552875008 -2.516564665924121
H -0.6139762383600565 4.341009226347769 0.4418374813658408
H -0.0830252818387169 1.7172868646283472 -1.1663504718525879
H -0.18817735417679224 2.468404002246692 1.7663907772658984
H 0.27216948128083973 -0.3061276517812435 0.32104689686678867
H 0.12840132242581556 0.586588403338622 3.2189453242035113
H 1.2490610357208007 -1.9315191487991157 3.254191924625854
H -1.9007953065433685 -3.4840767059649638 1.9404665788890465
H -1.2590524052737482 -3.004484060648965 -0.8881658349699126
H 2.4120769797016837 -3.8015389300539257 -0.36642567269176884
H 0.48357537956390406 -6.27724275921506 -0.45826387632401305
H 2.0711938084994608 -6.432557614124571 0.30907645001409567
H 2.049358799630352 -6.151514444278655 -1.4323798060168211
