21

C -3.3824931016603546 -0.9105031168203545 -1.0668993888891822
C -3.604027862336772 -0.864233325843236 0.24064922872166508
C -2.4934792001221613 -0.4748692812078966 1.1499234926573412
C -1.2826928552918888 -0.20078403144918658 0.3718778117359431
C -0.2629102933022458 0.032012898552497185 -0.26405350600226457
C 0.9547413741985009 0.2842106950012026 -1.0245812339266902
C 2.0850607628133737 -0.5472410754698553 -0.567081111659286
C 3.1645497786905423 0.04746316105167071 -0.11831407519658874
C 3.2524688063455405 1.5200195441149007 -0.06954045201741228
H -4.193660772121588 -1.1950576912657218 -1.733188121711383
H -2.430928570510081 -0.6765192005128166 -1.4841144754073403
H -4.573442246676 -1.1034876424649658 0.6632328810916271
H -2.320611633946121 -1.2718240949454505 1.9234071452136168
H -2.7669966223074614 0.4859657211384007 1.657477281191659
H 0.7368351864663315 -0.04334204601489832 -2.074497452763822
H 1.2424610692786948 1.3507494956053607 -1.0008849632391748
H 2.0632203669553975 -1.6381706308961677 -0.5856074426836003
H 4.000058298764237 -0.5348101009275085 0.22022199796035757
H 2.410476661136052 1.8939043300436638 0.5795354645105397
H 3.1765508143918417 1.9981978099199529 -1.0637767563877802
H 4.224820039245307 1.8483185823027786 0.39339156143806153
