26

C 1.6318657227308693 2.937125659564176 0.09546252659746757
C 0.37903837002612084 2.7413762031118023 0.3496580765691482
C -0.46891251107638254 1.602862107686457 0.21907887131773104
C -1.7642226415834312 1.7396720628979598 0.5579587938467155
C -2.7369636211298083 0.6503879372726735 0.4689879305472297
C -2.2074472652508326 -0.6215331613683466 -0.02045039142907406
C -3.139845104743883 -1.7713501375210554 -0.13935038985232875
C -0.9250999648736108 -0.7638097952663517 -0.3556984700671776
C -0.030334529898221146 0.34237587783995477 -0.24227736589554139
C 1.2041525119032446 0.068186502098424 -0.5528503877449289
C 2.4459202424201436 -0.3266915707529086 -0.2872698155998224
C 2.9275082713773086 -0.9663088319120346 0.9111912368875784
C 3.0188897747358685 -2.460353849338002 0.6766188135779679
H 2.3338505888305514 2.2508287927888593 -0.2881297134299254
H 2.056833038341335 3.9564231056324823 0.29790887830516155
H -0.13156845614572474 3.6725124143683274 0.7623321088300762
H -2.1378986546476266 2.6861743328761154 0.9168845656871
H -3.6956312373547453 0.9543742892968857 0.004078334586073531
H -3.2716378853974057 -2.303725841875922 0.826323107679328
H -2.7816464919565402 -2.4892567056650905 -0.9348770592186492
H -4.120148871139138 -1.426454366966164 -0.4673913384616654
H -0.6567469627039484 -1.7721022362570407 -0.7089063083546041
H 3.0390825060282567 -0.0971477218404976 -1.0740043686116063
H 3.438429955504304 -2.989669874952995 1.5661789067974243
H 1.998145285499102 -2.907702404308152 0.537173252123223
H 3.594387930504737 -2.7061927874086504 -0.24332655989781687
