18

C -3.4004212948903465 0.49837292165316394 1.0999522243779718
C -2.8106180265289176 0.44632477884795174 -0.08436588763211292
C -1.9531235121356172 -0.6939399891052448 -0.43878036821892735
C -0.5615794739904924 -0.2567727770386815 -0.741037459379692
C 0.3546654596128781 -0.4883724285785296 0.18137197808966807
C 1.7279183076490392 -0.0856047649565485 -0.05502632987580849
C 2.612625926508343 -0.3375273491166936 0.8966197689825319
C 4.02730176656925 0.07817556634533013 0.6513941959986634
H -3.287443666545392 -0.2692258923185279 1.846253425224999
H -4.040284902053353 1.345132453960214 1.3696195181357587
H -2.9666158621509906 1.2593223222616095 -0.7976733191720976
H -1.9870618320358309 -1.4332503374882615 0.38489666701752784
H -2.392301670888245 -1.2003587400183326 -1.3233061650280857
H -0.3524155052252772 0.22289294671536525 -1.6802062172497907
H 1.9716100429759138 0.3977137715885431 -0.9860656398140141
H 3.9996641459078432 1.0017253041118046 0.03209809048858531
H 4.557010835483341 0.2733768600924432 1.6131048892576962
H 4.501069261737925 -0.7579846469556397 0.0920464545900907
