26

C 5.915878700742833 0.2811811979454928 0.21249804589804322
C 4.710381747235979 -0.09968647297536189 0.569596513131697
C 3.5577301399100074 0.36133289013171216 -0.1938698245216226
C 2.3343391557529443 0.011200319468494743 0.11979876404078711
C 1.2206226308264012 0.4917515416705538 -0.6649004747045788
C -0.05347733511251754 0.15002442026913057 -0.36890395477727017
C -1.1279272820655422 0.6480647746489846 -1.1720352363954252
C -2.3786104799483385 0.38873723055315434 -0.9862977507063757
C -2.833891009694894 -0.48603724926951736 0.12151746259686966
C -3.975884841733132 -1.3300332908834656 -0.24070305724589083
C -4.738317460767022 -0.7810538426460096 0.6297900742072912
C -3.736853651469753 0.122693317581992 1.11102195762764
H 6.770908455687119 -0.046663751718359056 0.7599063444150651
H 6.031196338890705 0.9285771963191478 -0.6397254060889522
H 4.587702778651296 -0.7613472024553716 1.4399829133509252
H 3.7231166719914404 1.0085281774377086 -1.039499633557166
H 2.10670374248659 -0.6360375157086693 0.9575855972032206
H 1.409377199852926 1.1392421278443723 -1.5079350338041355
H -0.20858559049770395 -0.4883908907334575 0.47197098657264325
H -0.8814322208989329 1.308700024511545 -2.022680530044575
H -3.1648859027031646 0.8004763234367808 -1.6356728682882276
H -2.0315594280173213 -1.1381761545877207 0.54900367121217
H -4.095811469438113 -2.14344366342719 -1.0034295177518275
H -5.797924361674128 -0.9574473164916073 0.9003477266552125
H -3.9185663577051386 1.2178590938022271 0.8650034411310743
H -3.424230170302583 0.009948715275474645 2.191648165813853
