29

C -3.87487738630196 0.0366429292584811 -0.8404826757786762
C -3.1738044040214883 -0.9549899609694122 -0.3706099076967777
C -1.7644850822699363 -0.839713719159027 0.12408398082474102
C -1.4120103900632581 -2.057703202593718 0.5447899844161278
C -0.6434405862340967 -2.0489129621749287 1.5956206211970956
C 0.57635813136894 -1.3696430296118554 1.401204294010752
C 1.1911568513679407 -0.5869985636067123 2.2111895155582086
C 2.5245307438285014 0.02679196767554727 1.622987555186236
C 2.2931357102541763 -0.037448858117975464 0.18807892790792036
C 2.776278125812753 0.843859976830646 -0.8480585328487392
C 1.9177413040389775 1.5062633593331702 -1.610306069008878
C 0.5164194204788505 1.5176699423720672 -1.5685151838871767
C -0.5568530518034772 1.1351372847879126 -0.9953798435601138
C -0.976783508937492 0.3497087121422327 0.14082840075042832
H -4.8923741263570095 -0.10997926383356094 -1.1865292767803337
H -3.516476165322469 1.0337942367833162 -0.8963075282677528
H -3.6940129260981904 -1.9209075842577858 -0.35681819405109055
H -0.9100908994922946 -2.5139944284330205 2.4799345145339915
H 1.065467249775348 -1.6676547014069418 0.49534575035418316
H 3.296718070919094 -0.6014316228719422 2.050962749293791
H 2.6177943202565848 1.051628435848055 2.0002260143611337
H 2.83964256365014 -1.0608680958635281 -0.11862391393236309
H 1.249124659439847 -0.32922781738038953 -0.14661771709563653
H 3.823546646047609 0.9688840835852106 -1.0080732673674777
H 2.429975543224338 2.1223401034776774 -2.36815229636101
H 0.17983768604038253 2.2089763140369163 -2.5083274679679457
H -1.4727842599294516 1.5163221213397786 -1.5873223820228208
H -1.904823110213994 1.0943956858254698 0.44326518820401156
H -0.5049111294583841 0.6870586569843345 1.11160676002798
