20

C -3.7287889478387193 1.4406896119124055 -0.6373805462147503
C -2.5804296183526616 1.1262800595258409 -1.192990942023019
C -1.525417658379511 0.42512993860020176 -0.42708595583744563
C -0.3355479258434684 0.085678680876758 -0.9604702879421357
C 0.35345776847470095 -0.5530561863028375 0.09954234320374802
C 1.5514767203773967 -1.0333015639264813 -0.00039438082487291954
C 2.7956245759932563 -1.4282161246000455 -0.07838972439759018
C 3.7921995029597744 -0.4349993363115223 0.26296025283018937
C -0.41794224765698884 -0.6054558289239791 1.2888536485589241
C -1.5803823615152468 -0.0011716780664565846 0.9658441578251139
H -3.895572282130121 1.1810687396611939 0.38837916491693225
H -4.477874937399465 1.9480505926580576 -1.2106060725178918
H -2.425410163684565 1.3934692960922646 -2.2265389700663336
H 0.010320112361514533 0.2627520558600266 -1.9691733656986627
H 2.8882529708254134 -2.4329690959791384 -0.38497401995594377
H 4.05749135326275 -0.48464802292494263 1.358938602671301
H 4.704731514750373 -0.6278575446619793 -0.37051033910357734
H 3.4632395340251936 0.5899553384896732 0.07100495529790599
H -0.21287270078053172 -1.0121344165938844 2.2748169661514974
H -2.4365552094473615 0.16073548461317044 1.6045643577780255
