23

C -5.79285700451838 1.4650226448321662 0.741310636321598
C -4.493245784320677 1.5252477905230462 0.49710248726301015
C -3.6156920057289508 0.6514103423576023 1.2206835419314683
C -2.3452151373926684 0.745921599057195 0.9471984409254277
C -1.0849698776659598 0.8348065590480951 0.5432898881241783
C -0.7319785388068695 -0.0024505940567140336 -0.5516504461974467
C 0.3810690971752186 -0.6940041151749655 -0.5430663238968406
C 1.612537616509894 -1.0922587996862778 -0.6834865306848582
C 2.883428388846285 -1.3256569026256402 -0.7689988128154186
C 4.12680523823123 -1.403151052157472 -1.511740038367239
C 4.192021420064253 -1.739914935576579 -0.0969583107308444
C 4.591944131226551 -0.750512658471163 0.9690252479175133
H -6.248479927202265 0.7965062422186787 1.4559094737596177
H -6.442839920395403 2.1239008122746874 0.19407119365244158
H -4.143414587018069 2.232366711586892 -0.2396972488060764
H -3.853620622352408 -0.06908982137343442 1.9528456806570806
H -0.5284095434504545 1.528389887763841 1.1073202961296766
H -1.3928780274278134 -0.07580604800937517 -1.4164877922921617
H 4.5877993629107 -0.5005475846647027 -1.9599882058969613
H 4.290667836968009 -2.791175543915468 0.19422569473747783
H 4.257110744026536 0.2839024061214719 0.7130944534790553
H 4.0745852163669465 -0.9976943243555436 1.9242994512629308
H 5.675631923955278 -0.745212615715876 1.1082653721074422
