22

C 5.226861533599693 -0.050640203399418715 0.12239468528290685
C 4.068236190157066 -0.34957531937908465 0.6694055650494223
C 2.886876523039206 0.4460463621395491 0.43824716006988385
C 1.7393406637369835 0.13239674632287093 0.9926271368223764
C 0.4947267715646736 0.9182259822650737 0.7866495491204752
C -0.6439818173822729 0.01601874995856967 0.8714062232874644
C -1.3476254963245975 -0.1300636418200096 -0.23028711509865862
C -2.0362638370980104 -0.1325766111255584 -1.352285802857421
C -3.0502036441530294 0.8683320473805537 -1.4641061682956245
C -4.1464214184877735 0.7748128031864856 -0.7360465243075295
C -4.307369302434261 -0.3727823513801941 0.1896295165024846
H 5.347457428272247 0.8165942867655568 -0.5339645725714797
H 6.109412800363146 -0.641684631588311 0.2926922477805601
H 4.007195338986511 -1.2109672756362855 1.3044704739132456
H 2.9040410535153396 1.3356087171220234 -0.20442600995465807
H 1.6881911490741617 -0.7359892385682754 1.6298716196169634
H -1.01617656753742 -0.5540638577029652 1.6755537611805087
H -1.737431287927098 -0.8871540548229123 -2.0273619670331473
H -2.9999846537883332 1.732358717927571 -2.1182942087331806
H -3.511048859558936 -0.42048882762924583 0.9561643526803576
H -4.392072202904672 -1.3148336639627978 -0.4053703352407113
H -5.283760364712315 -0.239574736053458 0.7409549457121682
