36

C 6.6808990634587175 -1.5393248795279437 -2.2442158388197364
C 6.00242581248785 -1.8142291894900782 -1.0754613320750996
C 4.584965315353715 -1.3762439349000484 -1.087915817704715
C 4.154539483967341 -0.22807209583742782 -0.3869579198539076
C 3.848211397546263 0.7938095407945603 0.2574505056679861
C 2.197887078119191 0.6519626208932169 -0.2780398710077955
C 1.0408064355901177 0.5691820920984052 -0.6675233895759364
C -0.26699951039342484 0.45936963512124135 -1.1175953162310743
C -1.2738567780961225 1.3681167600266047 -0.3844868572592566
C -1.3658052163156358 0.9963037826065098 1.0255537742957064
C -2.6733970635035003 0.47773598125589634 1.533703618325431
C -2.8314307765345066 -0.16226686152659273 2.8578908385629562
C -3.7218753308323045 0.4741958742312613 0.7098598346873387
C -5.03545299800319 -0.04994646876021803 1.2751615612003024
C -5.971410442809331 -0.11214238426914129 0.4251215369131203
C -3.5936159479123035 0.9201537980533466 -0.6319176363727769
C -2.5398543783447294 1.3350773374529594 -1.1966468853151595
H 6.220093828245535 -1.045496934810499 -3.086835776026897
H 7.718465150610161 -1.8165844940048432 -2.290278208064035
H 6.533979415046384 -2.321185023528342 -0.28746491837481475
H 4.0214499549680145 -2.339246903979549 -0.7350727841377054
H 4.243490068479021 -1.3559029064880581 -2.1927201787513395
H 5.476365350223742 -0.03217445134184081 0.11729747342652834
H 3.6514977916968427 1.6000680278509554 0.7786636751095022
H -0.38085055322621764 0.6608210263954098 -2.2223804286237803
H -0.6467995198935338 -0.5923701253034486 -0.9055279981858946
H -0.8607703420580395 2.4070969244870977 -0.47277950746440817
H -0.9936405807372625 1.792504922375211 1.7405125398133219
H -1.8219831846985572 -0.3912496969176509 3.3029877662861624
H -3.263196496200273 -1.2163226316574194 2.6990078974439826
H -3.4782519059913595 0.3812553459697383 3.57243840808476
H -5.002784898756353 -0.27926663431339 2.326230611733972
H -6.855683633690865 -0.6112113470569364 1.4201078975611816
H -6.7816350400306975 -0.17606671588025408 -0.14367749138651337
H -4.540574814526526 0.897417087283028 -1.2466965437268782
H -2.475206733129776 1.6742329227660886 -2.211351440316341
