32

C 3.891631380673048 0.4627956049562813 1.5762994338084941
C 2.713118286791389 0.42961220116393173 1.0200996951957066
C 2.1071361127307093 1.1829766738522944 -0.021057488773574464
C 2.6134562423451957 2.228568222797773 -0.7929934111411294
C 3.7638831136088156 2.8024414298270393 -0.7808295676637278
C 0.8132933260398522 0.8139238376880589 -0.30564072807366816
C 0.10467491606546486 -0.24934249548234147 0.3825904682755123
C -0.7956160627652968 0.30194731665223556 1.3814763004823634
C -2.028684687105433 -0.12676737478115083 1.5182466644553834
C -2.613315466667755 -1.1635057946728469 0.716142842089179
C -3.9958976962928383 -1.6117038688344625 0.9032833059398012
C -4.779361636961909 -1.1011166425302266 1.8045898836401848
C -1.850273359249081 -1.7111471766559514 -0.21406572441288993
C -0.4842445365002137 -1.3070883957252444 -0.43929581237350385
C -0.31050436215354305 -1.069252912821561 -1.9367793955325026
H 4.665640890750767 1.1299221900079257 1.3090513348377997
H 4.131477611469331 -0.26153000088948636 2.4060788330595853
H 2.063019515802463 -0.3948618956661102 1.5034549790263478
H 1.9007022619511884 2.663941431822692 -1.5757459889294376
H 4.580946418961491 2.5811659467166064 -0.15581428712515272
H 3.9912927165904857 3.6455724038377366 -1.4936516639202762
H 0.33017166632395 1.3619075116510495 -1.0841322769215223
H -0.4524945254187562 1.086378777380512 2.035278580641825
H -2.6277939836587882 0.3481518974150626 2.2953613878235797
H -4.411596014453914 -2.4004983259011454 0.27924248487177045
H -5.819767127477247 -1.442809299115815 1.9408202638070733
H -4.436639499195095 -0.31987435710699463 2.4552342287050877
H -2.289458333261996 -2.4900992027034374 -0.8167591286777738
H 0.14824180398244785 -2.2411200641743068 -0.25743237496967825
H -0.9482198668287707 -0.21577196394088918 -2.2411776679735596
H 0.7437712236398971 -0.9688098673090411 -2.2258353006143143
H -0.71859032975519 -1.9640058074740516 -2.479465321813142
