22

C -4.719792475742013 -0.7882211685731958 -0.8117192765923453
C -3.496991568598486 -0.2875882702335467 -0.8269691071468498
C -2.611514511771359 -0.6057617739356885 0.2697120953810839
C -1.3792797535971506 -0.12067567672164792 0.285890228362098
C -0.5055517973805876 -0.45368804819565733 1.3990553757296842
C 0.719887957922462 0.01901185840788075 1.4315075034687996
C 1.1869923882478566 0.8823935395332699 0.3327059648719973
C 2.4581025291532876 1.5250660724579441 0.7418919397199892
C 3.615411780780398 0.9801019417608098 0.42992568305463646
C 3.647838080094367 -0.29186374261216147 -0.34001918139540005
H -5.070683197620758 -1.4207948193357347 -0.011720857085366408
H -5.408344951369164 -0.5771323392995398 -1.6053392187023623
H -3.1462997785915374 0.34207401289057693 -1.6223294829256754
H -2.9725414694026893 -1.2370173878908606 1.06097914712189
H -1.0232999649652028 0.5161918785248097 -0.5184749481834489
H 1.3791985596999234 -0.21003059583808367 2.233406968637534
H 1.3047125537278796 0.3383540121475453 -0.6276463207254506
H 0.4692215065698842 1.730961950736322 0.14535461350866435
H 4.521926473396158 1.4753004688273206 0.7440590224497594
H 4.646135327683089 -0.7454616463330481 -0.16712507158605078
H 3.505262510922109 -0.05648712607501576 -1.4109665406106053
H 2.879609800841373 -1.014733140242366 0.02650689367953034
