31

C -5.813843167572212 0.11646913925373871 -1.4389149916416013
C -4.884944224178977 0.2183180890245955 -0.5085141927722945
C -5.172745091753622 -0.29960262176815944 0.8665865688620683
C -4.194681652618395 -1.3544138812310091 1.2055569539446556
C -2.9776689459419874 -1.0290112191200855 1.5903380834337388
C -2.6084223000968083 0.3486721372758621 1.6782065541593105
C -1.4969851505378866 0.6923589568248243 1.0665238068600107
C -0.3159154862124412 0.9098600021043132 0.5207331326612554
C 0.8107214236842537 0.729313609347457 1.3588344218486428
C 1.7198851026610138 -0.13612153605213398 0.9415865269476277
C 2.617124274658289 -0.91247461577176 0.37395402627798235
C 3.5766437238079867 -0.2639968017539148 -0.5075794644814337
C 4.910375126284927 -0.9190007778931419 -0.28169027066710195
C 5.993946423981521 -0.4673942843993955 -0.8838298420612934
C 5.890578636453832 0.6948304560940897 -1.7890176927520183
H -5.610715498401774 0.4864957013898908 -2.4247275454983446
H -6.775993336915011 -0.332275921389234 -1.2287908977085662
H -3.9288788433441963 0.6661427716625273 -0.7237731426506423
H -4.959690133639473 0.5578360942044415 1.5601142143610784
H -6.211258894736924 -0.6020926958578408 0.9896533633403822
H -2.2855865420423087 -1.8126793646089308 1.8310754823437199
H -3.0856259011323566 1.1573191254923885 2.162654861465709
H -0.38965937858530164 1.1949886101332512 -0.49524534298923656
H 1.0728470018876302 1.17072588110148 2.285659077001711
H 2.5089608127125644 -1.9262439845558021 0.6461771250695669
H 3.6644698601552976 0.8027086067942156 -0.31118952476174655
H 3.3111325846367725 -0.361286957272047 -1.5970899434619736
H 6.949888580160627 -0.9307690136356495 -0.7265758683597447
H 6.890776414304421 1.1622069272751336 -1.9581203288848887
H 5.550332080133526 0.3597851440170533 -2.8094800774999387
H 5.24493250217925 1.5034064458073342 -1.3931150723873884
