37

C -6.272122653560615 0.7709227174955228 0.5885919970001022
C -4.958247908075477 0.7243665398055756 0.3774363502771225
C -3.9924468989215547 0.8201376767406932 1.5064648684668107
C -3.1324889601558437 -0.3558767704524956 1.6233263356160923
C -1.8004034772800048 -0.24837230290430595 1.527150091401475
C -0.8932808177889797 -1.3195641410009449 1.626089946190257
C -0.17110650961828777 -1.478333025366024 0.5598820229081564
C 0.35966459220086394 -1.967915939517768 -0.5130458427056219
C -0.25829763402896044 -2.900420039483604 -1.4028354262649543
C 0.35845289642933864 -3.35429423191516 -2.4862136466668927
C 1.6441086608458373 -1.5209121264007752 -0.7877425197572535
C 1.7741888191190038 -0.2987871150631921 -1.253990114805426
C 1.8100741520901864 0.9508862232150415 -1.635961206568384
C 1.9005359210825843 1.9207351114569309 -0.5827713596080798
C 3.087809005577179 2.1463964649594303 -0.041991875439451896
C 4.311904775171265 1.4287781290693329 -0.4939048201706349
C 4.947991708074879 0.6417763523415771 0.6168254112572942
H -6.696345890439255 0.8785308718027186 1.5713578430206674
H -6.944084380906066 0.6986379864299094 -0.2526864523834246
H -4.5615055989020075 0.6156834663773865 -0.621123304929467
H -4.539537956281369 1.0528560642660376 2.4630408237732997
H -3.377144599369257 1.738849280898353 1.3010319066004088
H -3.5827231486778657 -1.3235202708196168 1.7896529199901952
H -1.3865222652442784 0.7605208921780414 1.3571002238779295
H -0.8506711063817696 -1.8987424531211314 2.494316479892637
H -1.2695632842617035 -3.270686768521069 -1.2134865921078002
H -0.109181211913368 -4.057997282015129 -3.156771866554663
H 1.3579220356077832 -3.0304358727197123 -2.7334330641821563
H 2.596536101342282 -2.0142927466802005 -0.6828202111917485
H 1.766168666465121 1.0851045770595225 -2.6796704196336107
H 1.0612420564317313 2.4886574649177784 -0.19230628864305346
H 3.2302786597208812 2.8635269344086915 0.7559414823354909
H 5.073577795222596 2.17394051107015 -0.8466574166632367
H 4.043931214937727 0.7111431906298636 -1.3152086543757717
H 5.955369286486475 1.056318698732568 0.9065641880005272
H 5.1640103969090765 -0.4129910752403324 0.2893809959774088
H 4.351907558094142 0.6107409386853007 1.5384671960657264
