19

C 3.7375281500266277 0.5063804056407175 0.31849042685907253
C 2.5833622859838763 0.29551399560378006 0.9315469177637391
C 1.3884386448819266 -0.11478449751547734 0.20238982367763345
C 0.24005436030981134 -0.3264715513361958 0.7989405838689443
C -0.9223160887210883 -0.734905453733138 0.023416723112135024
C -2.108514151609149 -1.0299403312085518 0.9521811148534369
C -2.9473434934915255 -0.4365661978760117 -0.18385207072151008
C -1.7466546926103996 0.33256332980732584 -0.572061061284456
C -1.5281617736941937 1.4716065355582737 -1.1824885297828136
H 4.581251632176637 0.8083136844131047 0.9202131754079793
H 3.8469175011979457 0.3829395363635383 -0.7584885932086692
H 2.4910857245297326 0.4207486664818379 1.990003352786811
H 1.4601091917372562 -0.24609592645607195 -0.8615364341798241
H -0.7412350151698887 -1.6059220386014257 -0.6573182277818378
H -2.116446487676214 -0.33272767252761487 1.7932696285311631
H -2.2832261078649334 -2.089835021727379 1.1494628583367617
H -3.1244818483351295 -1.26268714791062 -0.926525777280195
H -0.5033366494578547 1.8330086556622864 -1.3544367498567884
H -2.307031182213459 2.1288610293616808 -1.555270440786365
