25

C -4.02702004473839 -0.6416501021573654 -2.4599812829360124
C -2.8515117394957534 -0.36529495167777803 -1.935253929566904
C -1.6736628521486432 -1.143823518560206 -2.2681525005607854
C -0.5227749580241724 -0.8446137076359587 -1.7311174161559555
C -0.32097042065964504 0.27299387609786163 -0.7703858234812364
C 0.730300013985174 1.167057307737179 -1.3413990134013063
C 1.6876262349994533 1.3690418535612703 -0.45150393929404053
C 1.4049493768343662 0.6579587716269246 0.7860297766014419
C 2.096944135152734 0.7768184637675498 1.9152125175050827
C 1.6982717311724158 0.0006154534064161049 3.0793626559557126
C 2.383097551094057 0.11112242572570792 4.215100514510619
C 0.2252959503525711 -0.1992258852811396 0.5395170346619833
H -4.175290056645504 -1.4482010309165039 -3.1539911274027688
H -4.873390320511381 -0.04075979060258692 -2.1870420977966294
H -2.741959185436366 0.45357782482626036 -1.2410820310913713
H -1.7675078798029915 -1.9652117449058928 -2.9603581944918744
H 0.34914779979648497 -1.4231080667126026 -1.9793087183598381
H 0.641123240432859 1.5545233170931463 -2.3599764286837406
H 2.5510800313789845 1.9954634454806222 -0.6719851527945768
H 2.9454320507246545 1.4404348828477445 1.9718350117880412
H 0.8520177155332629 -0.6667382487634876 3.0369755060651893
H 2.113746150948974 -0.44989378983940864 5.09547600564925
H 3.2354535618269904 0.7800608687548948 4.266093506444478
H -0.4969418422532192 -0.1207681648867538 1.3714821174559049
H 0.5365437555498485 -1.2703794891319449 0.39577586786940844
