37

C 5.310942584968504 0.28486509225108386 -0.9690087986224373
C 4.889290547446855 0.5315163151190632 0.2590162702557723
C 4.740208209724311 1.913243203556599 0.7436715477768101
C 3.2937456044321785 2.12552899043495 1.129171415775764
C 2.44479066291573 1.9083652853845565 -0.03629683920846755
C 2.1176041239872534 0.6574979606725594 -0.2955172872741043
C 1.7736288986690978 -0.5965630987522512 -0.3999426857119815
C 0.610946186649418 -1.0041061588403868 0.30926930024192306
C -0.45540930577429883 -0.3131495003794483 0.0007763220805830422
C -1.5742073521313047 0.2631891915194633 -0.3526812448482586
C -2.2912954967898376 -0.3724558218737641 -1.4483346198888254
C -3.2697356923206735 -1.3656285281953047 -0.9539724733630358
C -4.424118173396362 -1.0149468555268089 -0.3768699412724451
C -4.809435332508827 0.4000222035727918 -0.18948931858768353
C -6.102347633783222 0.6983258987304635 -0.914113712364157
C 0.47047518565936886 -2.034060124021633 1.2749465378074547
C 1.4730454757636957 -2.805841651512284 1.674540925587209
H 5.554086420061118 1.1137859403676305 -1.6392840382649587
H 5.43485661107888 -0.710706669004617 -1.3658741991085634
H 4.659396661731058 -0.34219258663537 0.8890808394793606
H 4.967818001714511 2.6164250647995058 -0.08080289051792093
H 5.360855268167492 2.1481170045483413 1.6322829519679458
H 3.026733434637793 1.5078977248703949 2.0146637425790366
H 2.035633515474737 2.594378527382207 -0.7244013488050871
H 2.4345719838060944 -1.1630603605535972 -1.0224417111367157
H -1.7917501120413661 1.1147661980307255 0.21976925209264475
H -2.803109264842689 0.3734079083066203 -2.0556662230944123
H -3.024091740232116 -2.4140067389317252 -1.072838944123207
H -5.101416586342051 -1.7754630653573937 -0.03436454226938445
H -4.964803335039452 0.5715891052838658 0.8974929489130359
H -4.045638271675789 1.0890793496934432 -0.6045038892763009
H -6.122335305446713 1.7944816967328208 -1.180313748737048
H -6.143430538526878 0.14365805207049212 -1.857945152525149
H -6.9895107233078075 0.5369565615551404 -0.2600041869482296
H -0.4820407499084272 -2.237472864561588 1.736520950431003
H 2.4464536939706094 -2.652631629219529 1.25230132304594
H 1.3495925432082092 -3.584811621516779 2.409927882224851
