14

C 2.7374356702851776 0.29009894591946295 -0.13438076829977477
C 1.4872457879152174 0.22299725719129002 -0.5465345846925701
C 0.39315929680829026 -0.07613793780207544 0.3470628779705064
C -0.8515835533052127 -0.12731014692043913 -0.1446966023474102
C -1.4124754635864376 0.059629408366982155 -1.4617963446377742
C -2.6121585182970826 -0.16442328573696174 -1.0242799013492005
C -2.197261594057774 -0.3783761406780662 0.3447452779181224
H 3.5087057523876126 0.5145554534634147 -0.8351815148521994
H 3.0074848934249987 0.12481137128781519 0.8925939796695558
H 1.322017526019313 0.409774182797896 -1.6217710838974286
H 0.5264396742692868 -0.2592073512855904 1.3832143325954933
H -0.9586167859742105 0.3033587885753795 -2.45658762736611
H -2.3906199792671887 -1.3786381151140634 0.7859174401029103
H -2.559772706621972 0.45886756993493544 1.019191308830806
