16

C -3.4555163651300376 0.05379178604847455 -0.19534620977402076
C -2.4265902371064088 0.07443794662264125 0.6232089380822431
C -1.0463739858002241 -0.3008693948246942 0.1417841471780262
C -0.20023967048595015 0.9067017007513585 0.36899992727141695
C 1.0924679570938083 0.7356701456945343 0.6102712004929777
C 2.268677212677914 0.20895457720450453 0.8092943458356454
C 3.1244056797776785 -0.040437546387964415 -0.3659764475023931
H -3.2848101458343417 -0.24090350414665104 -1.2279238775873642
H -4.444765995818017 0.32569431220036643 0.1611065895694302
H -2.5825064447224735 0.36606217126866814 1.65431436474198
H -0.7372726389250692 -1.1586673438270174 0.7670310572091662
H -1.1161800526277421 -0.5829550653874981 -0.9149809793706801
H 2.637030963138224 -0.05298053710355653 1.7793693637733077
H 3.2041823803569773 -1.128357012536578 -0.5901504070366965
H 4.165934591938164 0.27656137468787373 -0.06579927339104756
H 2.801556751467188 0.557296389735644 -1.2158872372029579
