14

C -2.6014051748717066 1.0390987042798847 -0.7942258106302599
C -1.4271431023385424 0.49473306632640435 -0.6310016394632824
C -0.6249723166927383 0.7473928949180866 0.5560028534351567
C 0.5639535408946468 0.1919786464659733 0.7139235729652351
C 1.7658777840598263 0.05355063764166603 1.6021226179634824
C 1.6678672046245635 -0.6573486503065605 0.28598010289398956
C 2.2279081340186275 -1.463485540553326 -0.5773103012484104
H -3.1638106135821356 0.8333366210373947 -1.6757279027959926
H -2.9908691106540957 1.6967097505071174 -0.026826969202080966
H -1.0137889618254239 -0.16748001104010846 -1.3839120993490903
H -1.0416862160630156 1.4067853804948092 1.3009836141104152
H 1.66920028049773 -0.5431556635820319 2.518026342887573
H 1.7653073702309454 -1.754080119553129 -1.5112728625370937
H 3.2035611817011858 -1.8780357166360342 -0.3767615190295118
