13

C 2.1017413274912027 0.08714660629337415 -0.6298431148940775
C 1.207839754649698 -0.5078811668919433 0.1427204055575447
C -0.2205272033456043 -0.6583457929469952 -0.23452791694374867
C -1.1251733870602585 -0.003604421517300238 0.7228455942570959
C -1.9243644121630732 0.9599510835870477 0.2986775983456894
H 3.1319183439167904 0.17155890084478903 -0.3091952500971684
H 1.857276093078742 0.510275331961394 -1.5983981607751958
H 1.5121144322111655 -0.9119283892176866 1.1013043764039547
H -0.48896538772858483 -1.7548885499194766 -0.26558450059148
H -0.4029369807883296 -0.296272944989845 -1.2653668652789998
H -1.1177605394083385 -0.32428132849270225 1.7547508802510068
H -1.9489660535240487 1.295493981432223 -0.7229836753289214
H -2.582195987329025 1.4327766898572432 1.005600629094114
