31

C 6.377860008784525 0.7864022303874905 -0.6869081116888599
C 5.971204204607355 -0.13595488440068418 0.15367124108177266
C 4.580519812634313 -0.27749421966970705 0.4902658381454693
C 4.124109323455124 -1.1992344048303027 1.3381008652900364
C 2.683316354048101 -1.3177550081858243 1.6631384407799972
C 1.9388330617730147 -1.5816064479802552 0.4396652151955988
C 1.4278283979248874 -0.5372353590966885 -0.1668146500785987
C 0.8665062038457886 0.5427361218890098 -0.6303189855129374
C -0.42072242684938005 0.8741441888734002 -0.12578186628395316
C -1.4803315900539935 0.8005504947246754 -0.9061231044262194
C -2.8516900504403417 1.1339988810644421 -0.436312062336489
C -3.807247025218043 0.30749071148416424 -1.1605412138016098
C -4.765494124624684 -0.225118259658452 -0.44613377768621326
C -5.743435361556153 -0.6313832849924305 0.33932187096752103
C -6.876421357618775 0.27280224769519656 0.46442324581011735
H 5.656382258306217 1.4715005362015376 -1.1512918759896618
H 7.4025255927421485 0.9390164790697626 -0.9756142598218666
H 6.6952128548075756 -0.7893950885066205 0.590992422580672
H 3.8469006329771585 0.391468120952492 0.04136499032544882
H 4.859954922006051 -1.8551133037230418 1.7756126668189114
H 2.2963064122740384 -0.5119367896335761 2.2832401454307494
H 1.7378811893665242 -2.4944758135387834 -0.048434107584888045
H 1.4687595040375085 1.0503221661124664 -1.3485953863105735
H -0.5702240281809392 1.190806514140939 0.8930033089082005
H -1.370870170867572 0.4845048859723944 -1.9426247375708965
H -3.05445177898021 2.2048768912722667 -0.42629262790548944
H -3.8606361500686015 0.06132486161501578 -2.1819738036132645
H -5.5598997407464115 -1.5746816138593542 0.7756915093289526
H -7.651679199764354 -0.10792529745643474 1.1553944427658727
H -7.38033492999792 0.3599757941584516 -0.5325340635898486
H -6.540662798622755 1.3059472777124173 0.7624084307720048
