32

C -3.0706740374491495 -1.282318699942928 -1.7881080358015475
C -1.9717777158559802 -1.7310853533130344 -1.2661755137772364
C -0.9557115245127265 -0.9660225150212752 -0.5788320237437423
C 0.12192580161272375 -1.543844982138061 -0.08809226160365827
C 0.28313000124437643 -3.022934806041136 -0.2561768676092325
C 1.1288963559247671 -0.7403220762958125 0.6255377896562695
C 1.3623620836314954 0.5188511959244225 -0.10574306083737116
C 2.7224407135472486 1.0463333084350888 -0.2579140127341384
C 3.3924108129453314 1.3355363327809007 1.071063330443932
C 0.29590557541072127 1.1309767199607437 -0.6055517668709701
C -1.07757536874502 0.5265378419810621 -0.4108058674360498
C -1.5618576195956446 0.814736137311218 0.9884229299467094
C -1.673920049767171 2.327480758425108 1.124747833174168
H -3.3156346592106636 -0.24147168918088951 -1.7409856715512873
H -3.754338460252081 -1.9488629523532706 -2.277201292875157
H -1.7832146938789188 -2.8087217190975426 -1.3502506182309544
H 0.3402693359696646 -3.2692960235634554 -1.337203933987527
H -0.6068908282006121 -3.4977435188207635 0.1709546492854638
H 1.1735866332201876 -3.3722463052549 0.26676278844914003
H 2.0470203687247746 -1.3115648334005638 0.8130045432520714
H 2.7915747170791154 1.956147362302183 -0.8644823974732319
H 3.3880457728371023 0.2910710212596688 -0.7688836418863108
H 3.0000903519137223 2.2398972932292027 1.55909378658379
H 3.1981026922068017 0.4282659497023161 1.7158332583458573
H 4.483174956286104 1.3747252827969125 0.8921116525502382
H 0.36364115158256005 2.050498405466687 -1.1507937791856369
H -1.7567043991297613 0.8744258375254387 -1.2046427844686456
H -2.5451251919963074 0.34926594855150234 1.194616227733077
H -0.8595916850297503 0.392884708990661 1.723782663437172
H -2.5981912136191028 2.568557218810804 1.7182583663349993
H -1.7299041996532698 2.7900913246986185 0.12586980447051932
H -0.8314656771788975 2.7201528261620784 1.7247596234622844
