26

C -2.509106043454667 2.039799616461995 0.6798167715781951
C -2.677703034535886 1.51712768949563 -0.5172275486882716
C -1.9373378293847716 0.312634123244001 -0.8726941717417322
C -2.018800416288461 -0.30496630827174714 -2.0365313310305444
C -1.137063921991159 -1.4989002516310101 -2.0757762242895486
C -0.9948633575961048 -1.8252836264818084 -0.6068378738343959
C -0.9714697456772973 -0.4279502589448902 0.009627371839847187
C 0.3757496535427021 0.1664012805194166 -0.04171349199743578
C 1.2512005663020085 0.10669233087227456 0.9516571164885298
C 2.6005884903060634 0.7237676263814803 0.85011238903646
C 3.677222702443245 -0.32219998670654154 1.013897765051768
H -1.8338839195770145 1.594246229628833 1.4027111458952315
H -3.035241923447914 2.916192257288267 0.9651767687729358
H -3.360217338188774 2.000140120699345 -1.1954981638765958
H -2.6760852291945283 0.062122379218912505 -2.845952480281979
H -1.6691892621766569 -2.321212898891377 -2.6011346067928987
H -0.16776300028246924 -1.2476369965386918 -2.5469287436848753
H -0.03237199947393264 -2.3436190011910325 -0.4750207569535209
H -1.8599187053731876 -2.4047820241060807 -0.26857578810875876
H 0.6769000882933425 0.6847937280268614 -0.9409241128655348
H 1.0208414150732061 -0.4017804744461626 1.8971379609190644
H 2.667230268183661 1.5137775187283786 1.6161303428500349
H 2.6984792758815668 1.1651095903086892 -0.17693609884446296
H 3.893866895010462 -0.45618000843154094 2.1024176140469466
H 4.621730374195173 0.05095233717326031 0.5366653745801971
H 3.397205997411762 -1.299244992406435 0.6100530829677084
