21

C -0.21479712716494945 3.0527401595593013 0.009627554327233754
C -0.15541731113596413 1.8038907158615687 -0.3872171860133692
C -0.24598503464582128 0.7181506388755543 0.6048216825487692
C -1.4970393023922297 -0.037134605532220026 0.3395252751013458
C -1.5618691417092452 -1.1580374785056975 -0.3386159231014783
C -2.907656313282179 -1.7849854247113535 -0.5100410866277041
C 0.9459682086101371 -0.15404586875581003 0.62503623953832
C 2.0862083228204185 0.13240915521884503 0.021173641591506635
C 3.2388460465227586 -0.7867393500953974 0.08283662308023727
H -0.3301526254508519 3.3522092255348803 1.0556040418827328
H -0.14932689997753917 3.8542707613067257 -0.7096279776837213
H -0.042182973999560405 1.5711329563121266 -1.4219859261623529
H -0.3535418108474854 1.1248184111965085 1.6513677207831126
H -0.7275193190728406 -1.6740434661524113 -0.7880005414093759
H -3.1968232584864804 -1.8133922666873312 -1.5927399196625172
H -3.705622115660632 -1.2169752154407036 0.005815290798156009
H -2.822824154389959 -2.811880857999845 -0.09463949152995091
H 0.871333391221961 -1.0843851747285107 1.1714653015637422
H 3.955164770474065 -0.6113764997978046 -0.7593869642585301
H 2.952730046711417 -1.8504188202865044 0.023765538976402042
H 3.8605066018550125 -0.6262069951718557 1.0112161062572498
