25

C -3.387563029385376 -1.8559535382816672 -0.6907506353690309
C -2.0957909874920224 -1.6039718966550338 -0.47965607769938967
C -1.6985687961460998 -0.29272582582077433 -0.053731484543717276
C -0.4705929335561111 0.07265966370395008 0.1837660289818188
C 0.6177855699315609 -0.8716131688348578 0.023194730637404237
C 1.8749798579097023 -0.49788348217391076 0.26805256197090693
C 2.9399569890366384 -1.5415585227343973 0.07583957834598547
C 2.181961360752118 0.8395256499676791 0.6932744319779449
C 1.2306485183117097 1.730780775282482 0.8521964810582658
C -0.19352131759024127 1.4882436262931613 0.6276900347355722
C -0.706936722658939 2.4041778737022006 -0.4910676041108352
H -4.134957570036847 -1.073897270881709 -0.5413833468490211
H -3.7137404389876374 -2.8206981014384716 -1.0077267641098762
H -1.413879130533539 -2.3978878552586327 -0.6394314363458656
H -2.4831077849182104 0.45333301712441937 0.08124537816046298
H 0.45035105377096635 -1.9156507578143032 -0.30160689162490567
H 2.5074661265757205 -2.489243350645384 0.4596262981762782
H 3.077777769242554 -1.6398411932558103 -1.0240306068086638
H 3.871210414791116 -1.2490035846422995 0.6030542404027546
H 3.242051183175177 1.0839128569254806 0.879069144500716
H 1.519033448849319 2.7202105362406357 1.1734274348825333
H -0.7981950126265627 1.637458418805171 1.5316008852631224
H -0.6237127455219561 3.4342885782797845 -0.11187669503984489
H -0.04660676403099485 2.2192362733425415 -1.3663533898840308
H -1.7460490588619302 2.1661012787698275 -0.7444222967085918
