24

C -5.270074456557136 -1.0121215113246709 -0.24541560266363915
C -3.9522161822335287 -0.7405738718492039 -0.2912026974291358
C -3.2281018439426754 -0.4653464821074737 0.9412539040019663
C -1.954960603310714 -0.20025643945840624 0.9244045018883044
C -1.1670803953795061 -0.15570105515783486 -0.27856415477168894
C 0.13626421932359614 0.12583677023445938 -0.19443715078449597
C 0.9823945483579338 0.1843446132368862 -1.3800246640011882
C 2.255901432129094 0.4656808018070094 -1.2355802917609775
C 2.8306635995992395 0.7204383412944809 0.10493956170644232
C 4.228474846258142 1.2017189646077715 -0.07321538267115116
C 5.2539617390360105 0.5437725517054384 0.44188340183622304
H -5.73574669156617 -1.0132536708336635 0.7169904634115646
H -5.8588356669022765 -1.2226495423782775 -1.1150878968518598
H -3.49851159286035 -0.742791172499351 -1.2619568492275561
H -3.784264981426323 -0.48589590238610825 1.8993210204715056
H -1.47547751726703 -0.0017385001076099947 1.902938103328212
H -1.6134754689420623 -0.34578502077191947 -1.2420013428212402
H 0.5586085432055079 0.3118824329140338 0.77902782958154
H 0.5668900758249583 -0.003283491558397465 -2.383492407226347
H 2.8113991195555137 -0.2548502681891871 0.6580935495270878
H 2.220565530295911 1.4901707253719538 0.6428765887346393
H 4.371786311644168 2.1091818612213498 -0.6395836018469243
H 6.257091296720861 0.8754811392633101 0.3227739622007565
H 5.064744138437835 -0.36683545558127384 1.006059155368594
