42

C 8.33239653238587 0.04190607798716212 -1.0846079570912783
C 7.0702879879410805 0.4135562385654291 -1.1456273589508246
C 6.116740758851809 -0.08383203710265835 -0.1852792456566289
C 4.845251201462291 0.3023956167420316 -0.26202750248280887
C 3.903888545983859 -0.21486762821760988 0.7199782356947192
C 2.633954022595273 0.10787976210632987 0.7258535686449391
C 2.000103204766456 1.0326844794832968 -0.25747608025118207
C 0.9397991228955287 0.3787335738149853 -1.0185965948016578
C 1.0062418087488105 -0.7727939900742783 -1.881768021123909
C -0.24850915955343814 0.9141538515463747 -0.899583115589344
C -1.4685237290460063 1.3770150429038683 -0.6562451762358421
C -2.1594371783627846 0.7660047671764116 0.4515477618348526
C -1.7153442971497321 -0.5843887824760987 0.7686055922575519
C -2.5509860828181607 -1.5651049579129612 1.083814900704837
C -3.979401551430969 -1.296300019565718 1.1189858475779402
C -5.050364223228007 -1.99665777834563 1.3788654996279974
C -6.2048524469584585 -1.3924889439178816 1.272306407970033
C -5.941137813961873 0.017969752523235856 0.9225883754848718
C -6.594116890195761 0.4162376684471873 -0.3909277452290421
C -4.465301591324102 0.04053288385790821 0.808503881763778
C -3.600561513976873 0.9747608872382423 0.5031962595436539
H 9.061603481991476 0.3965386028218685 -1.7857329479481325
H 8.662133683528733 -0.6391323595354391 -0.3134163235976339
H 6.747149151546192 1.0913097263137954 -1.9147548702870534
H 6.446404480996772 -0.7717845072251424 0.5948577168376215
H 4.591673456551156 0.9813961553689491 -1.057848947910429
H 4.279151137101003 -0.9091223055956028 1.4921812994600272
H 2.0143500022556617 -0.3478115547131483 1.5214797206339077
H 1.6086477319281434 1.8780178753049892 0.39149478709649865
H 2.722916549707408 1.5415827927897747 -0.9187851507659078
H 1.1167895866421897 -0.48992226784033677 -2.956495101807486
H 1.9057453104266735 -1.3887992950449877 -1.587039150056609
H 0.1518472801040156 -1.4700050931465565 -1.8387399175128825
H -1.725120564617922 2.1330733817269167 -1.3361869031670692
H -0.6510076409376693 -0.7902005390756379 0.7438262810909206
H -2.183141162530187 -2.5627454609797575 1.3151359626957952
H -7.1624020653563205 -1.8666874930715216 1.4195199623457977
H -6.246826585443319 0.7118940578498782 1.742250240855753
H -6.6145391184706 1.5375370409127838 -0.4184327136483228
H -7.628569800730365 0.01708893627865693 -0.3963971694151748
H -5.996139581124602 0.09524306788705406 -1.2581030907417758
H -3.9707920411951756 1.9751327741939209 0.2713435606164499
