21

C -4.393704411123561 0.6043482591841539 -0.8913082176654921
C -3.2612043368378734 0.06278213368385759 -0.4774367090557637
C -2.460719253541133 0.7542474410480756 0.5110286488416593
C -1.3390827123239437 0.22602326653831464 0.9262059198606843
C -0.8846412502299038 -1.032770795752902 0.41759011321600636
C 0.41507341128380654 -1.1351510436575711 0.23456629269116192
C 1.7030940902856961 -1.121651852079486 -0.006660953925673462
C 2.0930721802713563 -0.6516348424353995 -1.3065927721987338
C 3.1897815560842697 0.07452683152234937 -1.427464067707503
C 4.013420186230194 0.4052428489402159 -0.24444348564550544
H -4.732156158681502 1.5508345554890386 -0.5066804683013785
H -4.996603465909935 0.09188786298891954 -1.630395455248768
H -2.9316924200678436 -0.8699869252064695 -0.8592143479390878
H -2.7755789748348967 1.7171160428769385 0.9221832629000604
H -0.7649440267797524 0.7819184584658875 1.6739985724585429
H -1.417751082347741 -1.9036360480996424 0.15949013801944284
H 2.294552708610259 -1.4617431780396781 0.7983154428941102
H 3.5114803719497965 0.44645839472261467 -2.4060669826668013
H 4.074154632438539 -0.43411998938215085 0.487462964370683
H 3.6054024883324574 1.296823053439573 0.3063510446977355
H 5.058046467191831 0.5984855257534036 -0.5637482465229731
