41

C -4.852647347437551 1.4624514956167027 -0.3168441465833432
C -3.6523286802596786 1.624530551218204 0.2020450276112151
C -2.4588067527416397 0.9480991096665774 -0.3910598048310101
C -1.6187203246018613 2.034754307678937 -0.91065409331306
C -0.332266806020949 2.1408555671760947 -1.1395356353922788
C 0.6703073711327989 1.1100344150448045 -0.9128915133938308
C 0.48153397185085933 -0.025352638063314083 -0.2578184676045551
C 1.5323298548882915 -1.0408876973430103 -0.054581891256749726
C 2.8356214859417945 -1.0139791517577839 -0.2764374208984704
C 3.595051117015615 0.12589734997645294 -0.8199858339245163
C 4.89702766997137 0.10811304904548849 -0.6313597109574222
C 5.501744434423323 -1.0471103514569782 0.10796667477831885
C 3.080201332346572 1.2606322866164905 -1.5358754932384977
C 1.836379208478746 1.6820076086472093 -1.5774830971462424
C -0.6378485130370737 -0.6475744732743222 0.4203169317703159
C -0.11840694809599381 -1.144787531892125 1.7739352882142856
C -1.8743882172637234 0.0882327795022229 0.6452833176552591
C -2.9601021192710713 -0.9590485675637314 0.9599942925318982
C -3.230152628219474 -1.705638475651655 -0.32533204834754365
H -4.969415890415973 0.8271135811834126 -1.1880583276239005
H -5.714171655161546 1.958894363674703 0.12247518780083529
H -3.54609030371386 2.2609506009335876 1.0717003499792706
H -2.8326437211061704 0.3144248756663465 -1.221218005921199
H -0.012663780090825293 3.0875785759748164 -1.5311516927765423
H 1.2091421515472431 -1.9921562858011597 0.3472738047518091
H 3.3983832834331182 -1.8966730144926072 -0.04268795431948853
H 5.510497932432383 0.9089540313142374 -1.00229128086299
H 5.4608787136301675 -1.91718960413278 -0.5527880308509493
H 4.949302353708082 -1.155603708509926 1.0556564790540361
H 6.553425668477413 -0.7571756609756966 0.37327100562554055
H 3.7652485563366276 1.8601919994080847 -2.1180088684397336
H 1.6647421833171574 2.560768451080138 -2.18031117232338
H -0.13927001295116215 -2.2346845507974376 1.854800157064709
H -0.7290681935971651 -0.7108683699842443 2.6162201486124927
H 0.9162853501437123 -0.8013233527338894 1.973872948783056
H -1.7829634971410129 0.6725511089280107 1.6081015028147827
H -3.892561670083462 -0.4790154398674754 1.2722203344556768
H -2.6155944115207013 -1.6750751352922828 1.7186115570189089
H -2.363628555588055 -1.6530223046869954 -1.01286181949979
H -3.3958285450152053 -2.7975731092388125 -0.0926928834132791
H -4.128534065740697 -1.3822966848365679 -0.8572291151653482
