21

C 3.970031405332681 0.9356624407281904 -0.2219342323838556
C 2.7103311000184553 0.6677949176493307 0.0425868471887759
C 2.0673331979857044 -0.4609067646368713 -0.501806901734131
C 0.8180265743480052 -0.6610239739104495 -0.1946321524362083
C -0.44961237084353023 -0.7563802919209067 0.17142788530831218
C -0.670670416434541 -1.507613164921855 1.3795611204029796
C -1.3909586525031952 -0.08654480743366415 -0.700416613349248
C -2.1744342746236343 0.9801022102958417 -0.01610710552492528
C -3.492441449602492 0.9084933733752582 0.04325331626751523
H 4.471879652336698 1.7906909527650416 0.18521432169571508
H 4.517825940967725 0.277555875757015 -0.8674990445531472
H 2.1941832684686475 1.3503408133918626 0.693702039859922
H 2.4419206020782753 -1.2199253703612816 -1.1548349347424205
H -0.5418546920816533 -2.615451825675035 1.214587780226643
H 0.049181325091307945 -1.2749493822751317 2.216448103575419
H -1.6830387057771339 -1.3438374533394402 1.8356344557178614
H -2.1105792379776984 -0.8768804358974502 -1.0737003870140827
H -0.9690195680579056 0.35806648267561053 -1.598536097926445
H -1.6631212185930466 1.8130024048220554 0.43196582561123925
H -4.1034309333850025 1.6549045359504828 0.5269405229645748
H -3.9915515467479574 0.06689946296148137 -0.410841195452216
