32

C 6.256016663824598 0.6685999618781858 0.7356994488180125
C 5.081552414504444 0.4854532237563026 0.15417378840984397
C 4.735277516230154 -0.7149126435539177 -0.5615980239954445
C 3.5524713723184282 -0.7712145136401358 -1.0864856388697182
C 2.295305605513967 -0.811063853114576 -1.5021369069402666
C 1.3280015614015077 -1.3285903964296408 -0.54764958726284
C 0.05721415450572878 -0.5639041115856656 -0.5184879037120622
C -0.3927063229718448 -0.014638046869377254 0.5961982828502513
C -1.6581840863232764 0.7553847599029684 0.6608028235028369
C -2.3016556274174893 0.8329075999809552 -0.7054706688692225
C -3.655580442393172 1.477235487333152 -0.6566577584234805
C -4.3675747685702175 1.3406789536717743 0.6101835327971343
C -3.9123118568293442 0.7212814083667128 1.6561815276485672
C -2.592655879158604 0.08071805499935945 1.6553176299464316
C -2.6985137799822585 -1.371801635404669 1.3090023075072041
H 6.441471791587243 1.5892779647502446 1.250919667321738
H 7.042906339701474 -0.06632335815895392 0.7183079095364993
H 4.362827410741851 1.2855170969498608 0.23113866323777782
H 5.336975848813099 -1.58674267316612 -0.7203364639013251
H 2.1832565390966625 -0.45020765185373274 -2.484816364445373
H 1.186552644001213 -2.4086799614321635 -0.5997387353575321
H -0.5110224675572924 -0.44934770627171927 -1.4167614949751643
H 0.15086186311068003 -0.10099430361962122 1.5370722652537654
H -1.4451473294884232 1.805377688019031 0.9760203590712826
H -2.477690014282326 -0.23565302452199224 -1.0244157481662115
H -1.6239587169383678 1.2808477772123128 -1.4318191379205143
H -4.257600136744169 1.2922162478419568 -1.5452970951246026
H -5.366748745900233 1.7946374121518942 0.6923158683945004
H -4.511170483061747 0.6650477775877228 2.5677938842356336
H -1.6707721437548604 -1.8120172938269046 1.1575270162007705
H -3.248725820305782 -1.9207556117146658 2.121313848459599
H -3.318673103665026 -1.4683346292374513 0.3903977550809187
