26

C 4.950181564300187 2.04612031377903 0.17268460543505362
C 3.9368619929983657 1.2373120970275977 0.3653039123627179
C 2.6157520940880845 1.7744241409146275 0.6275112146503863
C 1.6092227262432632 0.9645359203569555 0.8187780860451146
C 1.8389224293704303 -0.4992560368293222 0.7636320132751597
C 0.9133039792929998 -1.0529907482914693 -0.29383326773670265
C -0.3647939896815757 -0.7320856618064567 -0.29970601781574385
C -1.2405955057686877 -1.2926144479669746 -1.3493045296815047
C -2.2739254654602084 -2.1227348531390824 -0.6783612937102983
C -3.3804971566188704 -1.5556265546410926 -0.2464881734637593
C -3.6432776019753743 -0.1327184379465692 -0.39751988588599113
C -4.756128393800932 0.43009620856838515 0.038287881962835904
H 4.815037176608919 3.104868475223474 0.20649504790648562
H 5.922996082801266 1.6455970960933368 -0.02041632662595847
H 4.066324327483989 0.17635927137895185 0.3325849931266738
H 2.4283845633817536 2.8501750947986544 0.6716895408250578
H 0.6337095559225653 1.3779962211680175 1.0125219496333704
H 1.4818645624788636 -0.9323493106946743 1.7269139805517733
H 1.374800931613034 -1.71124055592091 -1.0183707303378544
H -0.7795813649193623 -0.07618140760841037 0.43758364233834796
H -0.6895746393900484 -1.93246616217712 -2.064278334306833
H -2.0944124882568205 -3.16687179233495 -0.5609910146258941
H -4.14004576160575 -2.144275743013105 0.2424367311593254
H -2.8603321792051206 0.45854943106949914 -0.8984883452749114
H -5.478790811276505 -0.20039059448103122 0.5173489791553213
H -4.885406629134632 1.4857680359458254 -0.10601465983452787
