46

C 8.25570527165872 -0.013779784883584733 1.2059892432037853
C 7.00414839989754 0.34866402991991396 1.0102861114007637
C 6.110021803908964 -0.4601592659399976 0.19666226608579315
C 4.852529183013658 -0.09575238077644362 0.00018840034406053752
C 4.384482168933035 1.1125839281582397 0.6039907281482643
C 3.2043261702491304 1.0473454608372958 1.1918588416910145
C 1.983644701229546 0.9067403106069338 1.6473916363134393
C 0.9233696320616298 1.1585283040383825 0.7173302487265192
C 0.004105007839413784 0.19138511204640393 0.5200963399427296
C -1.0684676623810063 0.41148747394628304 -0.4060485269228567
C -1.965891621620871 -0.4938498847351739 -0.5995980602535369
C -2.0172399302853896 -1.7642272174252192 0.0379700255548906
C -3.1316513387696086 -2.705405865249191 -0.5423828292553565
C -1.3046902854905378 -2.3551850429372068 0.9323084973893947
C -1.729231331196197 -3.7715839918292016 1.3495788097548136
C -3.1970169534578967 -0.26694007408153186 -1.5137424627950327
C -3.7824788677490715 1.0868084584373474 -1.2030731001292183
C -5.01171686090577 1.1259958852210334 -0.747929412615155
C -3.1274648619966503 2.371824988010455 -1.353375166979977
C -3.9970986216468853 3.565271338367626 -1.4326778095427553
C -1.8539194699216162 2.605442783212314 -1.427987885046512
C -0.9859627383189195 1.703298828771603 -1.1235464459468654
H 8.622392924802371 -0.9268457392398115 0.7541429140891134
H 8.938055827259436 0.5695585357228028 1.805506888765504
H 6.664800166076819 1.264235822763545 1.4729804162284241
H 6.514310880260758 -1.3764347143701605 -0.24445972849579176
H 4.249684677897482 -0.7545343109491861 -0.6199842167952697
H 4.823081374185422 2.0694889988766505 0.6642145524329574
H 1.9385663542992635 0.6197956663617695 2.6580658098638263
H 0.8291530214724796 2.061477115122881 0.20090752347180554
H 0.1882572368147823 -0.6544460932701537 1.078006690060615
H -3.084356840421505 -2.524853296392197 -1.6317111252514724
H -2.7412124840678276 -3.719087811915174 -0.40094174618473694
H -4.0535573661977375 -2.466565961365117 -0.023157715725160337
H -0.453565567758394 -2.0214130807389354 1.453711682554309
H -1.3686851947516991 -4.53063975314201 0.6777720415240938
H -2.810249731260997 -3.758685835211337 1.513403120126297
H -1.2646576826395806 -3.974088125112564 2.3473674709642736
H -2.8388001693245357 -0.33857326404465793 -2.5425722715300574
H -3.971531899011899 -1.003813274021064 -1.2943794927998418
H -5.617124619978571 0.24098275714859807 -0.5874005687004902
H -5.478345947659335 2.068476675894842 -0.5096613200324679
H -4.354545263223919 3.847328306817079 -0.40420870193281727
H -4.882733957871793 3.274538394760916 -2.041133696576022
H -3.4198800682631023 4.379561299422175 -1.9119657483865435
H 0.021442534312607012 1.9460442931649617 -1.4777922267399461
