32

C 4.942707675542979 1.8595947256597434 2.0391753418675678
C 3.938187475044214 1.188804250054085 1.4513759629771203
C 4.224836276900107 0.39333048903240597 0.29058361433002294
C 3.208753134953262 -0.2292885559317715 -0.2277855289352386
C 2.1830539500993367 -0.9076830152952875 -0.6982090255948511
C 1.9757219745254555 -2.1896781472570055 -0.0947776313970186
C 0.7869094528444848 -2.4909927707643154 0.358524852323282
C -0.29672792776155066 -1.5136487180685267 0.23768302130742058
C -1.4912742529724081 -1.7972699339592475 0.6851269271580998
C -2.6651956033479087 -0.9774530984432241 0.6560357800420639
C -3.9248267912409656 -1.6176012148886278 1.2706338562788875
C -2.821520041536562 0.1934236210683144 0.20032893444632277
C -1.9861276462870088 1.1568871390271618 -0.43719995895115416
C -2.7831744617941374 2.421414168663766 -0.7415361544494885
C -2.924854099969998 2.8579168295586137 -1.9680359054804677
H 5.942883082871721 1.824522935084022 1.678235415121676
H 4.692985055739788 2.439104507516825 2.9002391300956907
H 2.9448866426515536 1.250815874195265 1.8458666431812671
H 5.149969143788696 0.24272570748950056 -0.2037633373083497
H 1.6550516382328493 -0.4060096627545036 -1.4546775738532751
H 2.7970308739514476 -2.904910670292454 -0.014097761860511968
H 0.6069003305993941 -3.436570727741298 0.8112313570070898
H -0.09831027978721053 -0.5432502825112018 -0.23028110614038833
H -1.582908162416302 -2.804737217323303 1.140073319726404
H -4.432150903488418 -2.118504583330621 0.4229414776051182
H -4.568481676049747 -0.830075569143959 1.687719185514862
H -3.6365702385657888 -2.4089395506586073 1.9875617396456173
H -1.5042079688847771 0.8463930582745579 -1.406431140249583
H -1.1320186976433186 1.4676905560304196 0.229518658349081
H -3.22838454918948 2.9468654519934763 0.09458426573747279
H -2.4802379652979507 2.33329543533004 -2.7989932953776866
H -3.4929054415047616 3.7538289693826665 -2.1566979717584216
