20

C 3.3733636673580834 0.3239116771000165 1.0321685094035695
C 2.2491233989386012 0.032558409764031564 0.42246592857546966
C 2.1963841549623826 -0.587982923591989 -0.8940546233202697
C 1.092343582699168 -0.8962634907445295 -1.5398305956785197
C -0.2622984874953804 -0.6716564414523528 -1.0527765944089613
C -1.0949259501917612 -0.24333111787313869 -0.13739641394859664
C -1.5262908630093768 0.3619686838831922 1.1504817362787583
C -2.7015718634147317 1.264146618971421 1.0236776247445056
C -1.687542433355237 -0.8322960218226005 -1.382770450150859
H 4.3417848366236145 0.11556427902049382 0.5825909101141877
H 3.36990562647269 0.7838788796912189 2.0083366207473534
H 1.3167160305291914 0.26078167990931445 0.9139238690330205
H 3.1901309844796253 -0.7905759419052479 -1.33164663701243
H 1.2538756640387023 -1.3595720369898003 -2.5243453335328714
H -1.6791835778688011 -0.3619114997331402 1.9499410830849186
H -3.5078776977939374 0.9709112329819907 1.7552576496310985
H -2.3772434215878273 2.2953733882864027 1.2771249626916128
H -3.164314228420987 1.2605520663683685 0.029355982057469695
H -2.2052316028223315 -0.10247059355500589 -2.0192249111014857
H -2.1771478201420082 -1.8235868483085238 -1.2632793172080459
