15

C -2.6500975923750905 -0.2738142500147215 -0.07202850960312286
C -1.3991174106539161 -0.6763622649289609 -0.050402296313106186
C -0.2925982470926734 0.11352833363962712 0.5533027462877794
C 0.775837944690926 0.45584345462074816 -0.4522424287693644
C 1.9667696985607945 1.2192631205687197 -0.13024437778689832
C 2.1185687346664417 -0.23336143733933618 -0.3159395419396899
H -2.9175796519744703 0.6751361711354635 0.3635232938803964
H -3.4272440877084023 -0.8744724251357573 -0.5194772322169601
H -1.1206223859617854 -1.6350060112845732 -0.4888854397186327
H -0.6850123616566003 1.022732866546944 1.0271305529697252
H 0.18250781345454728 -0.4882260839353963 1.358052867677488
H 0.3889860561788908 0.5014463499987905 -1.4979149264576175
H 2.182869074193338 1.6960400318573752 0.8272193455165002
H 2.3206056655992615 -0.81649176119219 0.6141089223625573
H 2.556126750078713 -0.6862560945367214 -1.216202975889063
