26

C -3.6232079227740996 1.0542230726258879 0.548544349077805
C -2.839740845428604 0.22663874794172464 -0.11698330395180424
C -1.446861262018171 -0.0031679392324438257 0.2898040294277393
C -0.98328927970926 0.7540073880845254 1.4878953252063971
C -0.6345165511669252 -0.8005198756323094 -0.3208063944541888
C 0.7442450946723543 -0.9756145455157444 0.14914316698651842
C 1.6503709332460126 0.1509359905141689 -0.11500430528269359
C 2.8637208248280737 0.13288605392824246 0.40878377315370473
C 3.766925731045688 1.2824868346181875 0.13016356286583858
C -1.0324142933337375 -1.559257931185529 -1.4909778851326554
C -0.17412033791075407 -2.3861323554253513 -2.116188009789815
H -3.218929732236669 1.5660964871419634 1.407760911469595
H -4.640070997598898 1.211325185678336 0.23775582634308348
H -3.264863644849644 -0.2679661105605982 -0.9644613217590507
H 0.08288130570818093 0.5770958437421425 1.6671896990444068
H -1.5168328384557737 0.33224974528365 2.389868407265779
H -1.2081038932313262 1.836857057751338 1.369102025123605
H 0.7473813321501305 -1.2253251664892129 1.212740616328797
H 1.301748141665484 0.9715404308600152 -0.7342016508089237
H 3.1831014961272937 -0.6980183324389351 1.0214547470114335
H 3.2110481246205618 2.2224709017850466 -0.05422221830159351
H 4.302242507389035 1.0310231133728083 -0.8198790557962553
H 4.495436731231679 1.399121810532323 0.9708165332175789
H -2.04036801053869 -1.4484120581814368 -1.8564077479199261
H -0.5382314914840652 -2.917117786243871 -2.9782010816871285
H 0.8124488780512515 -2.467426562955158 -1.7236899976382591
