37

C -2.41375975596369 -2.629916658310132 -0.022451448043179903
C -1.109570762700009 -2.394383624565202 -0.10538667927279587
C -0.524875988917188 -1.1404363793814032 0.31668038418083183
C -1.4074237022487892 -0.13203468799909657 0.841711981696693
C -1.7325694181239544 0.8287323981532896 0.012198100535166439
C -2.100178542942564 1.6784065184978385 -0.9140234092869057
C -3.264413402905439 1.3230957067072293 -1.713032402550104
C -4.311146106302643 0.5773501635601685 -1.0115974876907665
C -4.55954438331835 0.7243480891332716 0.2856470956447089
C -5.630690454693467 -0.04951952186786313 0.9661863443480275
C 0.7613816426023268 -0.9216128861606709 0.22910784778086282
C 1.758168895125165 -1.8290646115555804 -0.2695894144044865
C 3.0152288061914025 -1.5360481908760786 -0.32373343663041865
C 3.572496134131288 -0.29297691504179985 0.09732334777535742
C 4.889014083754054 -0.06391822810011512 0.009679929262929392
C 5.510551806709278 1.2217826797961835 0.4389824627481537
C 6.219675419635704 1.8920323135349804 -0.7251282568890285
H -2.8166662571966863 -3.5764808826094416 -0.3462220038379992
H -3.095602416564474 -1.878858751292753 0.3700894549635054
H -0.4771481535161626 -3.1657953477781553 -0.49968686154675795
H -1.8411337155149614 -0.04046540128744657 1.7964733715462302
H -1.479404782474141 2.540033671427917 -0.9611042203794808
H -3.6293569629491227 2.216170532321153 -2.259358230920287
H -4.9201505381200485 -0.13295297333268893 -1.5678905951642355
H -3.9671519101842714 1.4253726724424298 0.8613199126500357
H -6.218771165566939 0.6628429094693506 1.5821951002936638
H -5.236919017361089 -0.8268537701270419 1.6328750290122203
H -6.308387249934361 -0.48584857233047385 0.1839743967797509
H 1.0977497363168018 0.06107927457867354 0.5765530537534346
H 1.4615323928219432 -2.808037773843428 -0.6206083868288373
H 2.9973712517192106 0.5159436281226256 0.499007556901208
H 5.498954675801999 -0.8401920899458719 -0.3835295143777349
H 4.758705380242557 1.9083696843852571 0.8637709115300157
H 6.265728011540404 0.9378737985930728 1.2276535573607608
H 7.2546119887154195 1.480652870823405 -0.8679862295429364
H 5.661331934232202 1.7639671346062733 -1.6722024097387556
H 6.322362524484647 2.987343217750345 -0.5164865590446267
