19

C 3.3476156325629156 -1.4516590212982274 0.19046151197813266
C 2.300197383563208 -0.6465533824554751 0.2005185552144763
C 1.6097072549278553 -0.4148638439109554 -1.0124617293755844
C 0.5633159755330941 0.40358014357065847 -0.9345981607123208
C -0.2996461250156874 1.34631326050613 -0.8372117290859452
C -1.5725744341680112 1.069834694837192 -0.29603052036446376
C -2.410526150750682 2.1667153430507837 -0.242434703823919
C -2.090887233018122 -0.15895998593462066 0.1862845382145728
C -1.5431124485914955 -1.3257613912096975 0.2547749257107587
H 3.9240638117001936 -1.673580916639896 1.087318360315086
H 3.7038792272078878 -1.9455440534761668 -0.7107640392772887
H 2.0324492419689366 -0.21224385961788342 1.137502110390138
H 1.7251047262724533 -0.7574110833927361 -1.9923552980886117
H 0.044553791716179104 2.3162221671636285 -1.1961862466069015
H -2.073672189127192 3.1065069557745115 -0.5904942742223275
H -3.392865937917508 2.0381555643524942 0.15276520287526335
H -3.148591270105314 -0.1179851651171461 0.5728600885034535
H -0.5597628836925583 -1.5989235458853663 -0.04967214919902702
H -2.1592483730662106 -2.1438418803171477 0.677672181001134
