29

C 3.693870438118752 1.6003153937268848 0.4824474313288497
C 3.9301744655223088 0.37752171401515433 0.8997412127093377
C 2.7900899261024605 -0.4501348002495267 1.3825549381794873
C 2.6173769837267056 -1.675085308235784 0.5983280915086677
C 1.5755240438359805 -2.0284473812800883 -0.08271481535197273
C 0.3850440029400356 -1.1889500207871317 -0.14569545027395595
C -0.6746332716149535 -1.5838046612899677 -0.8575414917755263
C -1.8456949283256932 -0.7627122390860755 -0.9224386820151358
C -2.986827120606235 -1.3102668706642844 -1.7568555275437476
C -2.0368370000019977 0.3955900665537276 -0.3469071334295735
C -1.1863152977432554 1.2072879396900615 0.5057385214231506
C -1.8224667906318257 2.307551831066634 0.8458273487712838
C -3.1265385293746197 2.29508111330661 0.24408451273485052
C -3.279054444129511 1.2013908112521612 -0.45182707968944275
H 2.7007195239804 2.0243340180126523 0.4781868090390983
H 4.508017964886502 2.2113162527126153 0.13025971092603517
H 4.9431597887837055 0.002655806432988904 0.8827068173829405
H 1.8950481419195504 0.1871278479433427 1.4272940009555188
H 3.037007195976155 -0.705179830311407 2.44302720077684
H 3.476297496521833 -2.3790365752289375 0.5870586417163283
H 1.5573876505103037 -2.9598118134694027 -0.6268209525898705
H -0.6421872276871484 -2.536613080393552 -1.3896128681633437
H -2.6101449162019583 -1.9992060356258319 -2.5344204370448975
H -3.701683019187777 -1.8498027769408736 -1.1371763955346084
H -3.499399160667373 -0.4853442874222888 -2.295126435445558
H -0.19977178620155914 0.9803389066561737 0.8250062435788005
H -1.427692506989206 3.1058701250492673 1.483040403353931
H -3.899811220452988 3.0727454180384233 0.33688754384303377
H -4.1706604030088865 0.9452684365283942 -1.0050521593702892
