16

C 2.024571834267591 0.22048662040966946 0.33445083133208925
C 0.8871668284359364 -0.3842825400519051 0.2690679922724299
C -0.3979594133044725 0.11428808311187226 -0.10788661626869936
C -1.3850527571942095 -0.8493102897279433 -0.05216321785732061
C -1.1042185529051844 -2.23347393989473 0.3571649678264257
C -0.8250808251697828 1.4160356483473753 -0.5243955247922479
C -0.21485006739164134 2.5327463096508103 -0.6924264947706626
H 2.224158827898053 1.2359444089513199 0.11273493190925465
H 2.934411281306846 -0.33756607666516153 0.6539187672817922
H 0.9669863865991737 -1.4771789346766095 0.5648794768693846
H -0.7618768289803913 -2.2960842270207116 1.4251587952073488
H -0.37380498894390646 -2.742385393957166 -0.30710712377730115
H -2.050350932300443 -2.802242497718808 0.25946911841868814
H -1.9414509621711369 1.4778248607270865 -0.7565844936247402
H -0.789409537655181 3.413802340257747 -1.0296500404186053
H 0.806759707508734 2.7113956282570286 -0.5402932632082774
