19

C 3.188065189316525 0.0478708939411415 0.25724945886471745
C 2.052597781169724 -0.40909729915427945 0.7165538182078434
C 0.871724256065971 -0.7001321685515565 -0.13777746173544617
C 0.46846344432433057 0.39154092325382944 -1.0535623097177005
C -0.3686838159821492 0.0518961573352087 0.16297418855442214
C -1.7195777004057529 -0.5141309529210757 -0.13244078386492514
C -2.7495896133859032 0.5208518489121078 0.2996794823865369
H 4.011633982508361 0.23980696137182397 0.9328749260436193
H 3.3318859720486436 0.24250087263913486 -0.7897952578272287
H 1.9207864601242501 -0.6032221132040799 1.789988164427354
H 0.8373550534867815 -1.7445522286710302 -0.5021901642153128
H 0.9867959625957048 1.3831283644375492 -1.0224729408229418
H 0.134441827894711 0.10593724307168297 -2.051959896499075
H -0.35215326902125355 0.7696362481407422 1.0275606725049187
H -1.9231263347488115 -1.4642978836245875 0.40823961330037534
H -1.8217263339881702 -0.6869729938600605 -1.2015760150868044
H -3.705325272504927 0.053208902457317256 0.5675398438878306
H -2.3338803738664757 1.0111044256915305 1.2065782274651895
H -2.829687215631531 1.3049227987345922 -0.47746356587337235
