29

C 3.3997238901012787 -0.4294196400117151 1.2002611579205098
C 2.4538428282170317 0.30022096164060175 0.6618007479187882
C 2.143391856488418 0.22759754451703632 -0.7593135473940233
C 0.7598063258713658 -0.18907688782755488 -1.130188501543962
C 0.41848953809222306 -1.5171441985094813 -0.6262532163530725
C -0.6394788104872948 -2.23978766590663 -0.7546160313102359
C -1.7915537835851763 -1.767946054071314 -1.1251321076178302
C -2.452707371649178 -0.619086106916224 -0.4584358840425503
C -3.018671781079928 -1.1358516131592575 0.8511199300642429
C -1.4632287647192468 0.479127841965278 -0.23067463340667466
C -1.6850308757829509 1.315089069971026 0.7616609188784332
C -0.6155700742040693 2.3021717242566804 0.8153558950659634
C 0.2391306173180572 2.0460927783497302 -0.1497534910247645
C -0.23211477195296348 0.8831107477669261 -0.8770115237616115
H 3.6115395327891435 -0.3605449188910341 2.2469071843461537
H 3.9725415407210036 -1.1056637458017278 0.5918384146990693
H 1.8957245262775562 0.9723300811946968 1.3030074066967
H 2.347732196050884 1.1879328704296392 -1.2758891507493841
H 2.8400910028238386 -0.5109614986414445 -1.238303647158715
H 0.8114514939932339 -0.33044805442414354 -2.2566884298598824
H 1.186775302968486 -1.9794660687412884 -0.04140177470909734
H -2.3225409510829653 -2.1977948957535993 -1.9441532316360906
H -2.3076099826074428 -0.788898900242286 1.646768859904043
H -4.024725290784676 -0.7261200650971246 1.0692741481445533
H -3.0552878766442833 -2.2246532830575254 0.9039100966895229
H -2.530677727478088 1.3148581058972926 1.471576862407127
H -0.5178056091690071 3.1332319290816164 1.5349191925347543
H 1.1283282460468214 2.671206730009402 -0.29289403612855736
H -0.5515652265321157 1.2898932119724174 -1.8976916085733704
