18

C 1.402875724847753 -0.5042743348417582 3.182737136615221
C 0.8883306191941056 -0.8551291219026185 2.0216863933026334
C -0.5064883714764031 -0.976071000655971 1.7718374909246815
C -0.8809627210251807 -1.3289044065225903 0.5866981161622287
C -1.2135562122742003 -1.3459819653451806 -0.673906127460815
C -1.4122652066540429 -0.18599065262956496 -1.480627335455879
C -0.36798847915363697 0.6420044543707328 -1.5900513323429903
C 0.9986525808688484 1.1301386004279512 -1.3593196783912296
C 0.14331496231690502 1.9459408856181637 -2.20767131651452
H 0.7292744078870584 -0.29613913117430024 3.9931677063066067
H 2.4469411730029202 -0.4243001928501964 3.331605135621442
H 1.6239622786798602 -1.0576459248657717 1.2289876326416755
H -1.1964079015337676 -0.7786056090692309 2.5324637155902097
H -1.3272500074916833 -2.285391163435265 -1.0809403082051754
H -2.3471514385789964 0.05226825337377654 -1.9977481640412953
H 1.3016434411537208 1.53301576593863 -0.37963509693417885
H -0.48085564241934303 2.7936334918415944 -1.8431251626603162
H 0.1979308001396153 1.9414320518486228 -3.328740116748188
