17

C 3.574740103066614 0.5271965575931178 -0.28644051543392995
C 2.279570353979159 0.3951011481993717 -0.5665667366206443
C 1.711675237010129 -0.9407854616089752 -0.6412652368849054
C 0.42748019441731794 -1.0811147349100065 -0.9186658980140996
C -0.8792759997197305 -1.2036432213893635 -0.7719226881067158
C -1.5088043737446886 -0.9757568549376288 0.5196444749766244
C -2.3841616903860468 -0.013021861280848587 0.6264937556355406
C -2.7276279391282103 0.8263395367095114 -0.5388266268375771
H 4.0298616524235324 1.5010179100483634 -0.22293386846818514
H 4.198329826834239 -0.3306623014512378 -0.11686102423302273
H 1.680842356212497 1.2709792984142605 -0.7313422265854044
H 2.27400521995602 -1.8360803392868448 -0.480448226277068
H -1.275817172177673 -1.574203191887902 1.3861316450845809
H -2.8621251165310007 0.17563235466664132 1.566195435157269
H -3.7741253760766624 0.5957783097924544 -0.8905630033717689
H -2.000669047830075 0.7691411597343579 -1.3601103911400287
H -2.763898228305247 1.8940816915947056 -0.2194134809013868
