26

C 5.748202708800927 1.230017804565811 0.06596155817733466
C 4.661741216663844 0.8904249887695682 -0.5803768862029003
C 3.5295386122625545 0.4129018212474165 0.16467872069973608
C 2.4781003977378986 0.09072709828154639 -0.5344136319467265
C 1.4113343450788158 -0.14146639924709534 -1.295682456943934
C 0.5781842517691504 0.9739938237595721 -1.5118890942253673
C -0.6678504722791228 1.039710720444248 -1.1274131151325608
C -1.4260164128880648 0.026525141160953256 -0.4284524801717731
C -0.8678762779055484 -1.2804886358139749 -0.03917141230664119
C -2.707536537183851 0.2851137679797052 -0.11664779608322351
C -3.542403657089702 -0.7077592768460204 0.5988221972736935
C -4.957074964055437 -0.15522081754774478 0.6856294907708731
H 5.787880263599526 1.1518334598966389 1.1289719308138164
H 6.5983964489929985 1.5868200221711488 -0.473097980127951
H 4.656994000153459 0.9832029586148574 -1.6658953572765665
H 3.4333294313590526 0.28843582251567107 1.2073374581194545
H 1.3724351197771048 -1.1438420166508945 -1.6209451545956899
H -1.187729972529063 1.9946611338852382 -1.3765528315199733
H 0.08858178210869985 -1.1453556267585472 0.48554661728813103
H -1.6146824457526558 -1.8209858488187365 0.6141739576938652
H -0.7522201817700471 -1.9309352984357708 -0.9519305270205831
H -3.142987121131338 -0.91805110451851 1.6180120009008008
H -3.558679223002182 -1.6563714055974346 0.021937015159691785
H -5.129621160141768 0.5607149690765133 -0.1698824064741535
H -5.712471839360401 -0.9824300008145163 0.6416012365614339
H -5.077568313215108 0.3678228986798573 1.6571364117235259
