41

C 8.289321338268882 -0.29196672463171525 -1.7478160558458107
C 7.237902945245641 0.4013697418779105 -1.35158364429998
C 5.935503222717469 -0.24086675530895527 -1.2822500464342308
C 4.881313658301926 0.4452584193262442 -0.8875508228815097
C 3.5804465522522224 -0.19333053242417342 -0.8174796224688003
C 2.5435118243004577 0.5141303689567387 -0.42008083479379754
C 1.1716835359406628 -0.07374123509983156 -0.3221385155684511
C 0.6281587544454291 -0.021013750985324486 1.0055453637846528
C 1.3236124679645123 -0.7096878675214163 2.0703267793173326
C -0.4598200694539162 0.6615721720914087 1.1026775524535404
C -1.491465559213696 1.326596152506128 1.5083940319812834
C -2.7068932354977484 0.6209183778872833 1.3867102100300828
C -3.2859685922624005 -0.14717373010640303 2.3908711629629784
C -4.473538897198737 -0.8272142307355851 2.248788485949367
C -5.116173142986563 -0.7324566706573611 1.03388459049976
C -4.594269938592781 0.013121782322644056 -0.0022260274089886943
C -3.4095607789909566 0.6761379841320962 0.17733220640504302
C -5.41702985629612 -0.069274989241955 -1.0560374327245363
C -5.202611300481955 0.595551457518915 -2.3632922401424628
C -6.526699807666483 -0.9221665999821737 -0.6530812682537155
C -6.2395975709653015 -1.249616228883779 0.5891722649892824
H 8.22684025636297 -1.3382495226269469 -2.0296239736749238
H 9.274220669422517 0.14866234075659826 -1.812858939286089
H 7.3809189615447535 1.4390799912614107 -1.0875980398945746
H 5.856679165701486 -1.2865777391361162 -1.5607247907660258
H 4.982717838593881 1.4762397492199626 -0.6175258236173237
H 3.471355023400524 -1.2544841624191718 -1.0945315677861729
H 2.6378374794175774 1.5412507456039266 -0.14980144181609673
H 1.3056478564264733 -1.1710898947989252 -0.5676488393009045
H 0.5233733334067896 0.29191340848108493 -1.1479690895882462
H 1.5776100371515231 -1.7547216603721638 1.7865911444144236
H 2.2872540315092276 -0.19649448279564508 2.3710793932313865
H 0.6889718389794652 -0.8284584264120715 2.998006374200541
H -1.4929068312235914 2.2928677331021623 1.8996128771134593
H -2.724003302320137 -0.18284384264858672 3.3370706387361113
H -4.879115723810777 -1.4124365278001745 3.068313992346789
H -3.011875570582282 1.2644582374948488 -0.6619496423318311
H -4.322725913499162 0.15104116565716627 -2.845361608664325
H -6.128962112661422 0.5435946620349122 -2.96749006220549
H -4.963516078226276 1.688404946041535 -2.229305424110695
H -7.358146509422694 -1.1883038616845059 -1.2671783359996662
