17

C 2.455182830387793 0.8385310813313106 0.023306560790161412
C 1.2210231987494558 0.6991899983205196 -0.4058664208477889
C 0.3165930829104614 -0.4011238079816312 0.0763148357761255
C 0.10383701474197604 -1.565976276973197 -0.8763654357016137
C -0.11081680008906529 -0.46870732214548555 1.4502042305546847
C -0.974650913275565 0.1344501065792458 0.6174748208910569
C -2.234856614387445 0.8363697587406271 0.27114680851097395
H 3.0677905958081575 1.6477208361032176 -0.35428722805363644
H 2.9175233609642963 0.18167955711754266 0.7499481309393502
H 0.8041911933210475 1.3696172000488922 -1.1234710855125982
H -0.9035362140375663 -2.040657669309515 -0.7229923707569701
H 0.8477458707430785 -2.3541103873789595 -0.733394609217137
H 0.0765520740789367 -1.1353733342761596 -1.895104192072544
H 0.040632504363718396 -0.7593897178685098 2.498537500415643
H -2.705855555252807 0.38178988580173173 -0.6441617744200628
H -1.9603820277444035 1.8698295286530278 -0.015853546334400625
H -2.960973601282113 0.7661605632373499 1.084563775038754
