19

C 2.6948170870828068 -1.0913315050446557 0.12352702527332135
C 2.3476948827836854 0.08045052694116657 -0.35906114900258146
C 0.9527347492150314 0.4939401048099187 -0.388230546106498
C 0.5029868550975302 1.6564202720036483 -0.8553576142357798
C -0.9575992128560938 1.7231318744470456 -0.7230250143338685
C -1.2903501778674573 0.4118759334366181 -0.10292350045130452
C -0.17170612383565514 -0.297547885803961 0.08852270083683385
C -0.5457967666312971 -1.5947293819425556 0.7069946885022986
C -2.0306479832255566 -1.5171545573224108 0.8371321374557488
C -2.441709875037837 -0.35183393939357005 0.3644284235579088
H 1.9301314530000928 -1.7828925990647708 0.5158566615196281
H 3.734593605923648 -1.3732706405994526 0.13360290940545247
H 3.119706403061151 0.7289501263152139 -0.7330548014152594
H 1.095464318809226 2.4749571387982834 -1.2850983070794364
H -1.217710457977819 2.5048686874950348 0.0017625135526573104
H -1.4877330590679114 1.8782726508725194 -1.6843230101410926
H -0.11643591686836438 -1.5688343074654394 1.7499690579352654
H -2.6339070186896434 -2.312014944041833 1.2575369511285015
H -3.4845327629154546 -0.06325755444078138 0.3517408735982062
