23

C 5.802276827279112 0.32288368141951973 0.07831824143718717
C 4.516673173695183 0.6297157050546319 0.07301441118305906
C 3.5974961444198432 -0.03881088915577459 -0.7778976761916941
C 2.3468914894735313 0.32148316715749836 -0.7239869642054834
C 1.0877703454824932 0.6983774453046233 -0.5415590661260072
C 0.3878840366564778 -0.012839047440881867 0.4743893818637823
C -0.7663067803887349 -0.5814737346929997 0.25339014663889453
C -1.9772680307216495 -0.9700987844701466 -0.027714698774420374
C -3.1791090497633987 -1.5014463031370546 0.020988859079675664
C -4.2861908485175375 -0.6925888480980535 0.61080687847542
C -4.280186141708516 0.7158940588604289 0.07453573779892084
H 6.16555596846025 -0.4566267950619191 -0.5811651998979314
H 6.523417131608788 0.8132714859305822 0.7133615696973377
H 4.198659094429656 1.40705426062046 0.7406852348075786
H 3.785678712175715 -0.8166629370121815 -1.4745148411920075
H 0.7975571828582483 1.4775947242477434 -1.184007294916168
H 0.8082906757361783 -0.09947384745721899 1.476887473431909
H -3.3573057624265528 -2.4942994133138403 -0.35546175213338377
H -5.253859228336202 -1.166929360521109 0.41252346403438245
H -4.115536682951512 -0.6974191781224736 1.7084439794261181
H -5.298392230875211 1.1250372427477038 0.10901477488502043
H -3.5806957392311616 1.3598721620767755 0.6426738287031138
H -3.9233002873550142 0.6574852050636782 -0.984021334691627
