10

C 1.7704354669773454 0.1881007616392877 -0.3470802504292567
C 0.5019210311076925 0.4787131877377487 -0.1259219741108651
C -0.5085183030408099 -0.5308885313745143 0.11092165899887314
C -1.750211471748099 -0.19513117666677643 0.32487293300589654
H 2.4558255165220535 0.9924765460418064 -0.5135747333816265
H 2.127299878825658 -0.8221736430720811 -0.3638918347800566
H 0.18631401240407555 1.5380142762918214 -0.1191447326579663
H -0.22647790974324142 -1.5618220313809246 0.10903115855210427
H -2.528405624855547 -0.9279193229160361 0.5050909040294259
H -2.0281825964491262 0.8406299336996974 0.3257737285061392
