17

C -3.7749027142149947 -0.3714180797855967 0.09817873116574727
C -2.5209396460485594 -0.05881374821957416 0.35485162803499604
C -1.4887053136785646 -0.6056875572555295 -0.49854610562574275
C -0.22109873866174187 -0.38285148653673773 -0.36241185247404045
C 0.3114638715126738 0.4572541675718815 0.6830631638275614
C 1.615779498842545 0.6240760779500727 0.7404716089713684
C 2.4811740492500314 -0.01975784263779741 -0.2203327317102079
C 3.7915786890804277 0.11443075225005961 -0.20687758060373293
H -4.015082853008642 -1.0094784563638015 -0.7164431180737614
H -4.542264178564266 0.02767293551745275 0.722719588922774
H -2.2593773333952925 0.5963848733643217 1.1894911358716271
H -1.7781233354974169 -1.2630847196115087 -1.3326297606951418
H -0.3306114720660233 0.9450577062466536 1.4093139154903287
H 2.026127901785318 1.2445243609349068 1.5104425849386012
H 2.055235677733794 -0.6520657268546012 -1.0040922603004563
H 4.241890309183867 0.7317056402272063 0.5539029333458224
H 4.407855587747864 -0.37794889679723853 -0.9359664850885525
