48

C -7.653186574210632 1.1703084771588068 0.36116699241600053
C -6.640537294913223 0.3019534968885746 0.18960777128257056
C -5.372626477189369 0.824450051596925 -0.16141393559299297
C -4.907896351464368 2.1666436693795257 -0.387272322656183
C -4.417080174179141 -0.07623683655411966 -0.31664800478239064
C -3.516159632754924 -1.019063176549805 -0.4823415464004271
C -3.4285513643615437 -1.5332540383018851 -1.828097400028751
C -2.8150512593860286 -1.3372073496598889 0.6982634674048813
C -1.5778504017603798 -1.7433077413297788 0.5264399432083895
C -0.379239852842432 -2.148278643544935 0.26784058795626337
C -0.0013533069866062944 -3.49063188129087 0.027624552856925944
C 1.3392404293466216 -3.48276928637357 -0.20316667850568867
C 1.8585233972820925 -2.167567035492643 -0.12124392323107576
C 0.7561283940475214 -1.26437132600312 0.1861716095933378
C 1.0187559430048438 0.03700420186695466 0.31437894986651915
C 2.3776393914404905 0.5372232857532021 0.14113549100375833
C 2.6349267955328077 1.8233604547059596 0.3127591566273168
C 3.9972315384600923 2.3066035427457474 0.14000328003710677
C 4.335171943146974 3.7044339765738723 0.31918790591327784
C 3.4433473031848996 4.617599764519488 0.6458025455999061
C 4.988464884726554 1.4622343398036968 -0.1933931515366531
C 4.815552573972333 0.05140327900078803 -0.4106651897606132
C 5.699754985848837 -0.8212124267357257 0.3672826960097965
C 5.459875811022792 -2.157745069679335 0.29038658162983505
C 4.317068645755835 -2.5925800022706382 -0.5829336497304265
C 3.1623754440869987 -1.7262470633199924 -0.29638043522899093
C 3.4364978565488284 -0.40391592703082363 -0.17379726107006718
H -7.532377411389402 2.237212137542315 0.2414544955201763
H -8.658188567793639 0.8526435993752749 0.6311298072378655
H -6.887909379079624 -0.7247205208790027 0.33648499521719427
H -3.8923262889198362 2.3589853320564513 0.018167088131570877
H -4.904668820800154 2.3555462801096585 -1.5010797044435877
H -5.616792834687669 2.898667763081435 0.05193734195035914
H -3.4118219354636454 -0.6680248826661305 -2.5498871032358696
H -2.4346252529818577 -2.03551798205826 -1.9478113475424206
H -4.188181563709602 -2.279331452793062 -2.111775594809787
H -3.086052510056931 -1.3157856965627759 1.7180702843224411
H -0.5532719392232359 -4.412140722158354 0.0029169843158527173
H 1.9246583607047425 -4.394877029832251 -0.4234697586460728
H 0.17246214007782215 0.6871606761243502 0.5512946721142553
H 1.8553288263752534 2.5166421827451475 0.5773292837555656
H 5.376553242488069 4.007686223432938 0.1756365098524602
H 3.7658740714536583 5.664959570031385 0.7670259763925952
H 2.4117321364295985 4.363839487768188 0.7959104919695006
H 5.987652748251147 1.8798044123852249 -0.3050663067318599
H 6.52287524015265 -0.5253718939194215 0.9969631490626234
H 6.077358770175768 -2.8508575881234446 0.841598656099274
H 4.140698320651037 -3.6553506315062756 -0.41581000211587954
