16

C -2.5135973220725187 0.7403618888973887 2.049105610048462
C -1.9497328459969592 0.13873048175615563 1.015014486489356
C -1.0334733865860217 0.89056796252641 0.2069668141492202
C -0.4879931311374591 0.25279313819509813 -0.8215444536907679
C 0.20641145253960333 -0.43806831715257727 -1.687603869655762
C 1.372288897307403 -1.192243939177184 -1.1488519244897548
C 2.2840075648000018 -0.1530406669391233 -0.5104137473978544
H -2.297187941849102 1.7708417343367033 2.2884442636287297
H -3.2167941411160235 0.24046967051072302 2.7081494297531297
H -2.214012968374591 -0.9009250139574463 0.833094093751292
H -0.7318870074785034 1.8949504075492654 0.32667935017486377
H 1.0731248729960972 -1.9105212219275525 -0.3693502054883851
H 1.9344945445491972 -1.6460065848467489 -1.982829355767703
H 2.5541264547274274 0.6404618943915309 -1.2374686260882377
H 1.7820247835098175 0.3246315811972802 0.3697535868954252
H 3.238200174181772 -0.6530030153591428 -0.2256266181838186
