21

C 3.6220172246971782 0.6259684255017846 0.39050113126427244
C 2.9033084373516127 -0.4597998872918534 0.22026502729597813
C 1.4521776354868379 -0.4488542152831315 0.15240414844797298
C 0.7491528422824373 -1.6339219076964453 -0.029530240348301408
C -0.6194192831222358 -1.7142204567271033 -0.10488352799553097
C -1.360290050892647 -0.5378731232643452 0.0070646046787271296
C -0.7038066110402826 0.6533819507417273 0.1875541797445361
C 0.6847990648316783 0.691294076397385 0.2585566948841138
C -1.729002982831908 1.6832282208729648 0.2675972513025001
C -2.9347409485743383 1.1735026567506706 0.14623662297293447
C -2.806718086010091 -0.2824130689126033 -0.029963946682236144
H 4.699572484381217 0.5588601402697836 0.43351454187902805
H 3.2027091711281606 1.6121794697423815 0.49399266206511316
H 3.404507029907463 -1.436377343811296 0.12190999422740238
H 1.2893302866360514 -2.580677630240824 -0.12232824561262133
H -1.1685234762164172 -2.629758268227815 -0.24571032407805724
H 1.1853550938797608 1.646749240941796 0.40208032848982594
H -1.451603739942775 2.732290425507725 0.4121995490954893
H -3.8470138093430193 1.767275840589324 0.1770676317252047
H -3.2128887578617125 -0.5612389148903604 -1.040610533915376
H -3.358921524746957 -0.859595630969763 0.7418562795048688
