19

C 2.968046225387405 0.751551519805336 0.3488938969966316
C 2.3567600699158224 -0.39867125455068453 0.306771662498533
C 0.926066435201841 -0.5575152270201758 0.25123737171517063
C 0.3649313338608719 -1.823131036334166 0.20909976244647635
C -1.004643795683209 -1.9427223042967356 0.15646057383932693
C -1.8178638242523828 -0.8256917080698968 0.1452925465970013
C -1.2911547237356138 0.4563935089109323 0.18643129047888188
C -2.152770516526109 1.6675596851343466 0.17502791776993656
C 0.08702009300879338 0.54244794569642 0.23882183726686645
H 4.06121909992308 0.816599191845597 0.3903617581034959
H 2.485082245105668 1.718180478761605 0.34750102628333596
H 2.9806774064592845 -1.306253697806318 0.3143502939847339
H 0.9948276395571438 -2.72214585195813 0.2171802122093501
H -1.446041846862655 -2.942785263071922 0.12323579998722724
H -2.8983249213636286 -0.9138516261744655 0.10386658528801232
H -1.9660168692841637 2.3006578083074674 1.0653533477553168
H -3.207972506982837 1.3566305486591157 0.11500029309971799
H -1.9084543935407488 2.2580703029799403 -0.7531160879264991
H 0.4686128498114179 1.5646769791817112 0.270195948622807
