23

C 5.119238269466717 0.13314935592488203 -0.16149865054159387
C 3.8323990149813256 -0.14859205857089408 -0.32248458476024033
C 2.935518450195854 -0.3034457316809805 0.7735838223435026
C 1.6963108190216574 -0.5779439845599565 0.5234179742942535
C 0.4329348379990381 -0.7520526907849908 0.15783606872499095
C -0.3320870425998175 0.4614864600820917 -0.0613718468456967
C -0.6691194687771627 1.0667843841567137 1.2415453090921778
C -1.7951557476746056 0.7934072156356146 1.8713792282106543
C -2.8903175689115503 0.561487451306885 1.207273274425364
C -2.7919782362334766 0.14595581493348433 -0.18251770837157935
C -3.9915344489658553 -0.22615053819599887 -0.9523974786890704
C -1.6011211921003186 0.10723243693452121 -0.7475880168426587
H 5.747965233766619 0.23840367553932523 -1.0259179322128675
H 5.527688126216898 0.2552455271806921 0.8402323164424211
H 3.482052411559507 -0.2589002945597812 -1.3367410160862523
H 3.1522604231311853 -0.21948663681791428 1.81823057645712
H 0.17353169206752742 -1.767889372528025 0.07858232637418071
H 0.26025143032820564 1.1507361837860473 -0.7072988596014697
H -3.8502500605608563 0.6749764961252759 1.6773957137292048
H -3.850036783293932 -1.2739930114831315 -1.340623734640841
H -4.887565975501631 -0.25723067680996925 -0.29436712200091797
H -4.164474837805265 0.39941119668490976 -1.833900480975942
H -1.5365093463097845 -0.20259120229877173 -1.7806268824616398
