15

C 2.088370593940052 0.20833999984068527 0.30595015018527816
C 1.2644831266977024 -0.6468484675310778 -0.2655579980921777
C -0.12629943784570974 -0.2870333707657817 -0.5147892612695667
C -1.130171259539317 -0.8042485222192212 0.53059506026831
C -1.9594074150943424 0.41991631168346083 0.10588677164219407
C -0.5830035675573352 1.087432941410813 -0.09421144785621488
H 1.7375797600525689 1.1881106570016975 0.5956961889221701
H 3.1170999777887016 -0.031084587537824164 0.5010111819018422
H 1.6097073634268177 -1.6294796397271822 -0.5581227209000366
H -0.5323108661940562 -0.5274002022462436 -1.5259496446998324
H -0.6827913381456019 -0.6850285008607044 1.5349535743096596
H -1.5743635453488778 -1.7651234528340516 0.2818802696544419
H -2.386172935232099 0.19988086935959065 -0.9077978271121181
H -0.5900470026199385 1.8541265952970132 -0.888709738945708
H -0.25267345432843286 1.4184393691288184 0.8991654419917171
