24

C -2.614185218839943 -0.7212001275040267 0.345257423561921
C -2.5003320562419766 0.48260329152847714 0.85263149654197
C -1.6068533605643096 1.485163722589926 0.2866453766062802
C -1.383046471494747 2.727830086244723 0.6786713392913202
C -0.402652537225426 3.360104314511851 -0.19424716963616648
C -0.014798576410038762 2.5125023421991806 -1.1304936142021482
C -0.7491025499923303 1.253722034675684 -0.899270151080396
C 0.13162171444598694 0.09062028974101571 -0.7533390756396922
C 0.8062912916372112 -0.17981370248400022 0.3632716589858204
C 1.6657313436886325 -1.3360672572922472 0.47124887095004775
C 1.8003302092900726 -2.1553924220427185 -0.5453180631123922
C 2.656984052634887 -3.3620008006457356 -0.5252817334495831
H -2.050666781272847 -1.0286950130536698 -0.5178554175319426
H -3.285832648771047 -1.4254316701850789 0.7973479933732956
H -3.0846903278843207 0.7475950615482359 1.718648083035968
H -1.8946734655142363 3.166724123040804 1.5481343405840546
H -0.027078216978681655 4.36721613688553 -0.1169163439221849
H 0.69282748514444 2.6396677759801515 -1.9378044197352062
H 0.24878360163689417 -0.5897588235282879 -1.5850959297555804
H 0.6978259709134783 0.4966591878517399 1.2087494331775004
H 2.1936374521482436 -1.5256775803549325 1.3805792431744515
H 2.3915306079954366 -4.061997141600662 0.30408095120039036
H 3.7392710369652367 -3.083722467822995 -0.3789704974417694
H 2.5890774446899862 -3.8606513602822585 -1.514169059573046
