14

C 2.509815895519374 -0.04137781062972813 1.6041364632987376
C 1.5281459624398612 -0.3647445295823331 0.7590889577222765
C 0.8277809604157826 0.6903621502017815 0.08948400768561747
C -0.12125478694360803 0.33666037649852876 -0.7250817956694028
C -1.1513158355982023 -0.07284291173073754 -1.4535529689174571
C -2.4116778447324814 -0.2160276951628634 -0.7445027424250351
H 2.7646725608590876 0.9800102145527889 1.774889128347474
H 3.0243875469304187 -0.8485891031512846 2.097763632378977
H 1.2645535328460027 -1.3901087912906354 0.5804252492326468
H 0.9756334804137203 1.7329100770528254 0.16688429147538925
H -0.891527918193958 -0.23823156542465837 -2.458026931966008
H -3.1358516078454044 -0.8994059276150032 -1.2467025006432526
H -2.261106363179526 -0.4597995670501186 0.3147429177448567
H -2.922255582939623 0.7911850833333007 -0.7595477082634665
