29

C 4.6508520574438394 -0.4700014328102464 -0.5210707270096065
C 3.8478776175507377 0.5657387325856628 -0.35022906796890646
C 2.398296494884968 0.5336502688476628 -0.6835184905172843
C 1.6193545794150217 0.8114642077103711 0.5565118442768626
C 0.16895646595856995 0.7824161040715338 0.23737778380327454
C -0.48646036833863804 1.9331720311710785 -0.1481443604077285
C -1.832181188750007 1.9027610122122247 -0.4434882851794075
C -2.473378418511518 0.6872473236345579 -0.3351831667772261
C -3.924179930657534 0.6135653920401716 -0.6451044691871675
C -1.8146004141284142 -0.4783242922226976 0.05416285599403669
C -0.47387559744276 -0.4371402750654908 0.3461532536040604
C 0.000640720459553589 -1.8041247545368333 0.7359612637789597
C -1.2353070316757297 -2.621713206243645 0.6284515243086395
C -2.2401170796904326 -1.8606043109923365 0.2454024114654885
H 5.689117623353264 -0.373882651077775 -0.25767236368939767
H 4.289733138827133 -1.4081743580105903 -0.9179555911153796
H 4.244361796897735 1.4761372718741037 0.04514060121802188
H 2.2167912951925968 1.3110656950983783 -1.4370416941381732
H 2.099071286448151 -0.48558988861332225 -1.0436030878720937
H 1.9207175165502925 1.7176196707336884 1.094918926799692
H 0.016156023335817313 2.892851214700426 -0.2344629267659572
H -2.3798398728629695 2.795900890138835 -0.7514272038408598
H -4.075269768471302 0.5286908693885809 -1.7333584354159353
H -4.469088763874655 1.5005869303113681 -0.20792771156179823
H -4.369809161699135 -0.26900816418405515 -0.16416711249759705
H 0.7928589644006544 -2.1701916862106256 0.0598296069861546
H 0.3575226737535654 -1.794671547012906 1.7888675439954902
H -1.2853773751012478 -3.695175839267473 0.8398101175404479
H -3.252823283267762 -2.1842652082706784 0.0855277577818329
