16

C -2.6397381214964293 -0.6329020072553662 -1.2543770524543534
C -2.742917185757465 0.1908894951462487 -0.22746707852272743
C -1.5699884566613256 0.41380850130053826 0.6228779095410808
C -1.182971664385445 1.1082327016504525 1.7145054067417955
C -0.2752802909304399 0.2358279998129247 1.0075894478435647
C 0.910884276486353 -0.3143663061622697 0.8541955911073472
C 2.148198654556807 -0.7229359833804352 0.8295601131193732
C 3.10640208906955 0.05018582842844627 0.03717975639873151
H -1.6953597777938967 -1.1179639871566385 -1.4378116329224544
H -3.4434035582403033 -0.8550433011800108 -1.9276245628871245
H -3.703706181486496 0.6659187768362171 -0.0650034396921718
H -1.3754951033614466 1.8005027362103454 2.52701186233008
H 2.3678632439252247 -1.6095757001828421 1.4030031261348008
H 2.8985563634649845 -0.08199755055455019 -1.0429685728172462
H 4.1491792027523555 -0.27955380825992115 0.21108142308464997
H 3.047776509857673 1.1489726047470306 0.22300042201970785
