20

C 4.847671721531233 0.12103151653331994 0.7911236005231621
C 3.6426229641185413 -0.3229844313687501 0.4573208664076558
C 2.4676189841499094 0.33872237717132875 0.9423384850741832
C 1.3138024269179787 -0.14308474715090047 0.5806259723264763
C 0.19612069380585218 -0.6271566486944923 0.08190445365431201
C -0.23527304088442466 -0.08587072280519174 -1.1578094487921327
C -1.436268094651518 0.47104939935750845 -1.1655414396509252
C -2.6744178079427243 0.9073557685723409 -1.0861965377988312
C -3.7138355089946207 -0.08579945741031188 -1.3492218178724436
C -4.451484703126705 -0.35081527120723716 -0.04244481098548302
H 5.7605037769928895 -0.3574625667424385 0.4406702604894932
H 4.991702234667178 0.9830497627452702 1.4299623087943123
H 3.569474242391587 -1.18126897607027 -0.17816873663731225
H 2.3978276379149004 1.190870436643435 1.571306492557258
H -0.23570875493936536 -1.3832200270366324 0.7017242330920206
H 0.233542799509058 -0.043097343890776116 -2.1027977400406828
H -2.7473113495512465 1.9280732219817822 -0.838913545446034
H -3.9438307126115175 0.16346503665421852 0.8184563906617989
H -4.497497452337428 -1.4544914386929302 0.17635939291300365
H -5.485260056960043 0.05009442307546654 -0.07069837926966638
