15

C -2.6264807067098332 -0.049272749378272696 0.013591053607472016
C -1.514812252194064 0.45464014209443154 -0.4930436477104946
C -0.6965241603906983 -0.410124404380621 -1.3989630981118821
C 0.6292936520727035 -0.5597586664462416 -0.7896630434228794
C 1.2321894470544674 0.3023434238373125 0.0006981576745906608
C 2.5830876652795665 -0.05411144886765247 0.5089678254418792
H -2.92629737196933 -1.0593760533700063 -0.22683788257062507
H -3.212116454908278 0.5841303596901861 0.6681978719642838
H -1.1843433908689112 1.4612396418209874 -0.2743406046014406
H -1.1382171855017833 -1.4282195034135783 -1.49193647743532
H -0.6680965421404532 -0.002305714617292974 -2.428919251581002
H 0.7665783628363693 1.2252379987537898 0.2669616565645598
H 2.90441060249363 0.6409848518009199 1.3185310163738588
H 3.269663094518452 -0.02317966099502583 -0.3707410832163783
H 2.5816652404281752 -1.082228216528951 0.9279058274414373
