23

C 6.150096105312419 -0.41960727948694954 -0.04558550251397804
C 4.892807208073974 -0.7153941792929505 -0.18846182427818392
C 3.9164981368991585 0.35083907911199724 -0.316865933835186
C 2.6442692178578118 0.1142110216650629 -0.46228409974564844
C 1.3834405931525002 -0.1868968287971976 -0.3994799368422163
C 0.10889014885863212 -0.48025476354807933 -0.4711954036059373
C -0.5593938904628104 -0.9018239678990553 0.7215705580957494
C -1.5010194631698899 -0.10917163229429432 1.1607573938757114
C -2.472681833629427 0.7101754500445332 1.492196859638549
C -3.7428784997318956 0.42786073031622324 0.8941828624031961
C -3.905440578432302 0.771572188291698 -0.39429614805091534
C -5.17473588435852 0.5219726962944659 -1.0956361111225825
H 6.490643176153103 0.6055342086269098 -0.01961903757439634
H 6.9434907379987845 -1.1673140960403776 0.05716215855533215
H 4.597207103410242 -1.7562040918069974 -0.20897067374058234
H 4.229028966773928 1.3758729338395046 -0.2941706635074175
H -0.3620652345141608 -0.38194878258277276 -1.4475494002676297
H -0.4168963459451634 -1.7610342046082843 1.3145647889340097
H -2.186402674267961 1.4759143831395944 2.1602852082471404
H -4.563070232332819 -0.04648280920248479 1.4398587614528655
H -4.978732626147547 0.2984484835730396 -2.1794946734018907
H -5.825646368011898 1.434237209987479 -1.1039529249922728
H -5.667407763485418 -0.34389898482038606 -0.6130162577214482
