41

C 7.538676862574666 -0.4730742264505776 0.5534192296242557
C 6.384317125248069 0.15193926285001924 0.5790582404477781
C 5.243768694879868 -0.25756994607180866 -0.23327997988832747
C 4.086955762487882 0.37193146203371447 -0.205130415053251
C 2.9204712141888454 -0.029354850352251494 -1.0216238095247414
C 1.736994981464855 0.7818624124699417 -0.62145944303803
C 0.41067433782214946 0.6147717854410939 -1.2568044411527193
C 0.6356417732161657 0.1897511442664791 0.1797648586953625
C 0.05762807593934761 1.0450804935534495 1.285966154794448
C 0.5423936300004762 -1.2655938084264016 0.3969534654317292
C -0.6104048972250272 -1.848758161867333 0.7020927392430842
C -1.8523484201757698 -1.1237902567692815 0.8458243425174445
C -2.3897065292631874 -0.8906824400092613 2.0994840329129705
C -3.5916502308455573 -0.18779992608795376 2.219605419364118
C -4.216082717155852 0.25791735689548084 1.090532249002945
C -3.694031934668862 0.03419881498594539 -0.16818163270274422
C -2.503850433569894 -0.664031577131873 -0.2540521683624624
C -4.493905863524812 0.5700775221424138 -1.0963722353278504
C -4.295837618153758 0.5512949874416279 -2.5520762626771485
C -5.600539671899448 1.175258484510367 -0.36572031134133415
C -5.336028620107968 0.9336572188297835 0.8950095416433926
H 8.343362087795024 -0.11789304860847093 1.180582598496564
H 7.742920315374073 -1.3359368838745909 -0.0646404353730494
H 6.240943217184156 1.0108657602857192 1.2195577524967247
H 5.3200788760467175 -1.1119126956871614 -0.8980154987883002
H 4.006031351187371 1.222379117434565 0.4539034736670434
H 3.185291380011436 0.015779922944858867 -2.07956736192132
H 1.9977847899602923 1.8558119336785988 -0.387627975289084
H 0.2906153855029033 -0.17644553908624583 -2.0381151831218185
H -0.24814394925318733 1.4756892161693187 -1.3949043434065425
H 0.16737017270339863 0.4704567945446097 2.2291943813132273
H 0.701403919754045 1.9603017924056467 1.433466046847443
H -0.9468181056751588 1.4116178544551574 1.0862473307628957
H -0.5802613129070631 -2.9183034679623594 0.8424066348077116
H -1.9094363340357299 -1.234826143539596 2.987708044388986
H -4.022784912689353 0.002923093098117807 3.171122395803563
H -2.101613661780937 -0.8352157741406344 -1.2415962461779086
H -5.266480839838634 0.5247496523623701 -3.0713312535973345
H -3.741881019607573 1.4594665789755052 -2.8756543892430546
H -3.7327767236036724 -0.3906711106035488 -2.796121839752871
H -6.4187401573608724 1.6905164020874488 -0.8296237065212257
