12

C -1.8951704806780827 -0.4822813818497515 1.23745162979894
C -1.7750935327431527 0.49509059341848743 0.37109668600037937
C -0.48943962498229304 0.7307244160186793 -0.29421795498045117
C 0.26693224913615665 1.3997357724608415 -1.1321001997470814
C 0.8985086525299786 0.42866251682853834 -0.5441082859297718
C 2.1286994046075547 -0.3453065817692081 -0.33941486341800337
H -1.0725625878388503 -1.1195968663522882 1.4751618290039967
H -2.838407321244164 -0.6403782408807419 1.7131096619691724
H -2.601106400773836 1.1585241259834202 0.1126567728893234
H 2.6440184161488207 -0.540265802533953 -1.3189215522455748
H 2.8735295955916214 0.20350255526457886 0.28350222495852806
H 1.8600916302526926 -1.2884111065691324 0.16814903848578644
