26

C -0.9430203291184167 2.4897724469390834 0.710134874979789
C -1.7230580313111918 1.5472858341940492 0.372432362172514
C -1.6560687990380623 0.14432514017662587 0.14435046287601447
C -2.8944503908183155 -0.3363262200680636 -0.21584523802201333
C -0.5995892384768083 -0.8174073727997422 0.21394748274377798
C -0.7583463919513106 -2.2246797611867337 -0.06542888376411389
C -1.6063836365992261 -3.072061766234372 -0.4019241772823051
C 0.6786242248813406 -0.535846528429013 0.5485969087866808
C 1.387785611959501 0.6308955204870693 0.9093869921202403
C 2.729187459382504 0.7854867527419517 0.22331090421496683
C 2.607279143272712 0.8457742034869304 -1.2708279878683404
H 0.08128081396895294 2.5950802565905144 0.9574179990534751
H -1.3992233699591587 3.5573634917872905 0.7930700136140596
H -2.8113289900708787 1.9736596793808374 0.20296445559114176
H -3.741314009530124 0.39958032386624986 -0.2777254848841009
H -3.1441747962238322 -1.2875166578590025 -0.4364744176436003
H 0.2909583736565445 -2.746122892196773 0.07886721470324776
H -2.6453948878124054 -3.07337158553378 -0.6345050627960634
H -1.2382059624891482 -4.160750461732154 -0.5082496025745565
H 1.3192710179151916 -1.4772109814025487 0.5287277912999866
H 1.566185290420595 0.6849003196354317 2.0036006049726325
H 3.2961365993088974 1.6536126098214494 0.6004463073879542
H 3.33042085653066 -0.12902125524029487 0.4615625186760999
H 2.3368001230719004 -0.15716136840153083 -1.6436428134155538
H 3.6170465293507843 1.0688966752275406 -1.6741228501003387
H 1.9195827896800302 1.6408435967493271 -1.6200703748415781
