18

C 4.3209754177317805 0.8467261440248544 0.3330304371729169
C 3.158450906975516 0.579175803728729 -0.233575450399361
C 2.365136437773866 -0.5095646857688491 0.2817136063832114
C 1.2017173432696042 -0.7679557178451919 -0.29465167908944845
C -0.022895012150884103 -0.8139888988440721 -0.7113508492415604
C -1.3283282910652132 -0.8509890806564371 -0.8537955138284977
C -2.0703235953653656 0.3471069238051492 -1.2318355652989719
C -3.2020902984418482 0.7018743907048918 -0.6477422090567986
C -3.8522644475299384 -0.04729022931437195 0.4389060059538957
H 4.685002226021763 0.27530094660855964 1.162609444560237
H 4.9045920107217915 1.669970513226096 -0.06825544592932135
H 2.8019593935974325 1.1743363285271347 -1.0813852618116708
H 2.712568814169664 -1.1003074493646292 1.1186270483397573
H -1.911205240347691 -1.75036271953227 -0.7022594988058279
H -1.7215210786334116 1.0151901105020482 -2.0245870652115086
H -3.46030103163753 -1.0796297268584243 0.4430783209219409
H -4.945352066563 -0.076433263028114 0.24802863035253506
H -3.6361214885265234 0.3868406100848821 1.4485028760458938
