16

C 2.2974691029487566 0.5570662167460546 -0.7233838918775721
C 1.3463541545930415 -0.3528594292932312 -0.7180277138709387
C 0.14903433352058196 -0.3030298005947383 0.1332555887771916
C -0.1981335011834529 0.9573058453381855 0.8906158295315824
C -1.6484644689037156 0.8068833794729131 0.44112521839741103
C -1.2202316515994667 -0.3463461760797022 -0.40435483082472495
C -0.6561545319523767 -1.516529493716778 0.3209259500405743
H 3.142835717876624 0.4437355519562327 -1.3796466132289729
H 2.2117060871407612 1.4079813891067186 -0.06372376682694372
H 1.451891487967588 -1.1969629957651826 -1.3863708287532537
H 0.25375185549064366 1.8625073895109445 0.4393881330327829
H -2.045198161369133 1.691555100396241 -0.1128356502827524
H -2.2715735149539262 0.4935758119601119 1.3081935345990254
H -1.4443103843472227 -0.3884936284700274 -1.4837641786952473
H -0.9911720607091838 -1.7266354662465841 1.3704781405908684
H -0.37780446451963495 -2.3897536943210897 -0.30027310779593125
