23

C -3.7360467543094646 1.1258718299354622 0.8434815495545227
C -2.4322556344480852 0.9940483586930486 0.7470001908690106
C -1.760010336576035 0.013260250729154944 -0.09286801841187751
C -2.5265834903863182 -0.9344422674313744 -0.9243824526706311
C -0.44603739625066435 -0.03552167100500883 -0.11709697704110192
C 0.23013780808353787 -1.003446516078939 -0.9456942022786345
C 1.5180336616923256 -1.1840066795966515 -1.0844433922307273
C 2.5414833751145185 -0.4962857076191278 -0.47523478286489573
C 2.907385316205047 0.3983857227011475 0.30411075324086023
C 4.381871644759058 0.6271048282174608 0.5222073234829528
H -4.187113094143498 1.8881405859478875 1.4971695494075845
H -4.457165012158472 0.5293101696552027 0.3175437831119917
H -1.8388356256957583 1.6879239592431552 1.35560685323839
H -2.212493048622935 -1.9793347041807743 -0.6398575320774678
H -3.612977852860411 -0.8195544173628935 -0.8716419628533348
H -2.2003542536190235 -0.830930603382889 -2.0026212102238174
H 0.08485550282712635 0.6638989858466972 0.4956171819315275
H -0.4341273602646132 -1.6763737007935509 -1.5369722882089665
H 1.7837930575729377 -2.01358163771056 -1.7989095027476856
H 2.2765104180028057 1.0597600121353996 0.8679359628067902
H 4.581667578021169 0.2962120251903694 1.5550933577744976
H 4.986244172285508 -0.0031423917051957035 -0.14824585416091351
H 4.552017324774518 1.6927035685764316 0.3580022760298155
