18

C 3.4911909522975013 0.625210845622349 -0.5270355202221032
C 2.597401996300055 -0.1788122142051291 0.013590639547611971
C 1.2040288463086226 -0.1233809806953941 -0.395263090057832
C 0.30867809657514406 -0.9245275164295985 0.14219958975402713
C -1.1131951470679087 -0.9230595506055846 -0.2223291601750839
C -2.0298640411696436 -0.8778972015579285 0.9248439959131275
C -2.8409505587123682 0.1468465571188092 0.754883425682489
C -2.5145425158293295 0.8261544602036783 -0.4903676319828014
C -1.5055774772654924 0.2100435175620475 -1.0714854271022225
H 4.53194351929107 0.6053302477688841 -0.24223545959334133
H 3.2294129204699296 1.3548409281126204 -1.2916125971266799
H 2.9318495274373872 -0.8765861696702139 0.7662699052466383
H 0.9043153714828984 0.5952805824640772 -1.1590557354933002
H 0.6350132658937955 -1.6253130405283265 0.8957062469461028
H -2.1003783061593397 -1.5246428733143649 1.7955413792117194
H -3.643142849441337 0.45307634966059857 1.4378797864654085
H -3.0307309235912956 1.7159275331251234 -0.8844259659403858
H -1.0554526768196533 0.5215085253683688 -2.0362890141469734
