23

C -4.285536528932752 1.9973506631045708 -0.3841426807513142
C -3.4671482035223296 1.3527422458904335 0.4004689906814988
C -2.7663959560123454 0.19108904629331686 -0.10284438571333603
C -1.945158673516631 -0.45622229149466403 0.6836107146958031
C -1.2141399905870158 -1.648304431115629 0.19661013756925258
C -0.3103085228691961 -1.2393043595242583 -0.8692221034423854
C 0.8207177738848571 -0.6991914510206557 -0.48422922006618463
C 1.9675491220540224 -0.2678925162853048 -0.0067930347451343005
C 2.964795763179605 -1.254685038052334 0.22943715253753671
C 4.231853834684854 -0.9816608126371863 -0.014794360579136532
C 4.660538501467518 0.3453670765358346 -0.5376443826534949
H -4.443125573491092 1.6767488875496062 -1.392397704873176
H -4.809375746334388 2.85878982710461 -0.021286053577470418
H -3.3069894876276598 1.6702851290244831 1.4092048389826635
H -2.9022163723046046 -0.16951896153429094 -1.1342614779306097
H -1.7957156076670584 -0.1259906622059228 1.690250924973964
H -1.8823866692320788 -2.4918678520238595 -0.049848231633430044
H -0.4118783165141991 -1.3057939412847843 -1.9130647915237864
H 1.9867721407566734 0.7778560525841095 0.13910693297344473
H 2.7229163402032706 -2.233368880737754 0.6064348607182127
H 4.110843065298269 0.5187789104031353 -1.4915480833924175
H 5.749401131710525 0.34614648174714546 -0.6800602726826452
H 4.32498797537197 1.138646877679341 0.18629842608587108
