21

C 2.5025690539113574 -0.5831601269141622 -0.482663921671921
C 1.6133313957032074 0.37878321131299886 -0.5237387056998105
C 0.14106487423581243 0.21049400772346008 -0.7281848924364365
C -0.29464377157560695 -1.1346209228620021 -1.1261173692186925
C -1.3187416041213804 -1.7787464685670051 -0.2711745967759744
C -1.8279674551551457 -1.200973487605315 0.780694603123793
C -1.4103234446459558 0.13021407690846057 1.180128915898173
C -0.5087241675123612 0.765613114048412 0.480562207087996
C -0.12499918689156371 2.15101699797812 0.9582453818611464
H 2.308407536002334 -1.6348830408138642 -0.589069354245867
H 3.5492319049930656 -0.3200190469398909 -0.32657338938146047
H 1.9361574183349413 1.4285384825408476 -0.39785643124685
H -0.09271097126624175 0.9848607780940811 -1.5423761668952465
H -0.8224740794680551 -1.0157872872050728 -2.1329391845305876
H 0.5010551855046036 -1.8807238274549982 -1.3389442991349834
H -1.6756258347432964 -2.7991397034213237 -0.5286623973239005
H -2.5834903835840035 -1.7279669062815024 1.37345157971645
H -1.865933878369407 0.5959695378004589 2.082680647790758
H 0.8839561665484328 2.086801483506459 1.4061773112322786
H -0.8465426913667209 2.535087475476027 1.6792281415626582
H -0.06359606653412608 2.808641652675643 0.047131920288571605
