46

C -6.882426335664525 -0.04442803665219608 -2.220452468446757
C -6.8099630702030325 -0.010602066892585386 -0.9043612458345662
C -5.520884840827445 0.054856158975478866 -0.20302039941601854
C -5.528927890120452 0.08526419314336829 1.0976213789437046
C -4.284582380326923 0.15127927440093747 1.8943919404612732
C -4.403975774459256 0.17930969629133683 3.272958459796253
C -3.2377813293277717 0.24089132032924784 4.0071575158757256
C -2.0274737817473016 0.2715706628673297 3.3621772589283583
C -1.8821422660472724 0.24493614651885123 2.0010784852696393
C -3.0824887737704847 0.18142359255232424 1.2399360322957989
C -3.058627753063699 0.14802871256072728 -0.2126705204718348
C -1.8813094473204761 0.17700775266508373 -0.8771266393137686
C -0.6094263738950841 0.24310171160264243 -0.12180663795531721
C 0.6639467751794638 0.2827374613757517 -0.49072992741309557
C 1.0922585415593213 0.26661181935628475 -1.8637540585897074
C 2.1063729184051474 -0.5052343936854131 -2.135125391637881
C 3.189830989846447 -1.2356615598844998 -2.2981157899686044
C 4.433260554112124 -0.5632616987210216 -2.0987356237767045
C 5.046645961610151 -0.3921844392171227 -0.9591300774529746
C 6.33693414266773 0.3178200543695586 -0.8317525813319996
C 7.347449183620098 -0.6196826706649606 -0.25496546188032815
C 8.76292995923476 -0.1663730872417702 -0.5412955523212712
C 1.4882508971745283 0.3429307307952324 0.7340786666735007
C 0.6569359768075854 0.33686360365574536 1.8144262404786293
C -0.6483590280838489 0.27615975265493387 1.342006118462926
C -4.299781990491138 0.0819091299515869 -1.0187051943203707
H -7.817137283844917 -0.09208117229510637 -2.73706808630361
H -5.954322842953117 -0.02292854466917042 -2.8007910487752796
H -7.746009228536083 -0.033092771570216416 -0.353116056310901
H -6.462267083004749 0.06228132781433438 1.6235785934806304
H -5.370780801032863 0.15442036295833897 3.771941240101847
H -3.3490787204235906 0.2621265420003209 5.085118348045659
H -1.1323604355128027 0.3200518149300828 3.9771091564035017
H -1.8545735120784395 0.15256139348125353 -1.9553267179877334
H 0.7138424327722533 0.7865783175687724 -2.6975184687137403
H 2.9844226970573304 -2.2377816579858045 -2.557693098276399
H 4.924901698954795 -0.14742138166436644 -2.992193100260132
H 4.585438130832346 -0.790244002119239 -0.06938319695739226
H 6.617644427694651 0.7210522717954078 -1.8255344282730082
H 6.2371779321104714 1.187013297760008 -0.12340716721149013
H 9.116414085833778 -0.621673039195727 -1.494788233066883
H 9.438890216480921 -0.48354511955241997 0.25391458712289866
H 8.782472101784219 0.9406770511144368 -0.7137602933491686
H 2.5540435792575984 0.3846084009648158 0.7856026191338062
H 1.0655524145856297 0.37651375504936657 2.837295379630272
H -4.300934674848967 -0.7405671337974287 -1.7480645554894811
