20

C 4.437942038098312 0.5779868763663475 -0.1311596410982382
C 3.57655294695747 0.17841953429605123 0.7816882267369605
C 2.2143156653547007 -0.13951994222705422 0.38585981805622854
C 1.3267468849952786 -0.5441127108567535 1.284808626486467
C -0.04977832748263211 -0.8533562751759425 0.8143748969758683
C -0.8979817520230949 0.2601966736895779 0.9482720919392553
C -1.889047072035657 0.23484133961099535 0.10400015986036458
C -2.82766052840342 0.49661707763504154 -0.7579651718452224
C -4.06995615567511 -0.07495403902626592 -0.4212919283008929
H 4.157142523585262 0.6733019076480304 -1.1551820044022891
H 5.435256386714891 0.8128119331048471 0.14662900080290908
H 3.8884587216170075 0.08784027100982819 1.8294858250591122
H 1.9411161236536252 -0.041196675977440506 -0.6431432911608858
H -0.40356855124573193 -1.6888055049432993 1.4925437930260053
H 0.06876616257339725 -1.3383248375018542 -0.17136449911128088
H -0.7540350841924216 1.0456706528998736 1.6620329156328162
H -2.6758364039811453 1.0862657344717712 -1.6374571899370611
H -4.300398039952117 -0.9420026741573255 -1.1109031108580545
H -4.933227396330784 0.63333608743833 -0.6082418482446588
H -4.244808142227363 -0.4650154283047478 0.5905727873377009
