27

C 4.9210551554814295 -1.4348928962475977 0.8933553430120827
C 3.717792356912718 -0.8574841573817089 0.7760740166124767
C 3.655991834320429 0.5674661255917407 0.6915532621482338
C 2.4563945090343378 1.0871106593285242 0.5777847660107638
C 1.224346795128408 1.514222050907896 0.36253537676820113
C 0.8222533832644272 1.5854019894017852 -1.0044302120373203
C -0.23131640762290387 0.9577235744778627 -1.4776081102826484
C -1.0647854679561979 0.12967316721768984 -0.5862308358125903
C -2.4925155942745065 0.6643215231751076 -0.5639134758286565
C -3.3160695779840195 -0.19043933390306111 0.3452971089421486
C -4.426530305775122 0.25815537390778615 0.9083280880664444
C -2.8527226011490683 -1.5739197350218632 0.6056878579410012
H 5.8273065254797665 -0.8517485880693523 0.9244217533761384
H 5.04129961021013 -2.5114973753956376 0.9624054961571761
H 2.8647564774255145 -1.5203155107481765 0.7532587096053256
H 4.430580599668893 1.2764282993374985 0.7048899062456994
H 0.7106364316540884 1.7425277030467923 1.252150766348679
H 1.4081772107636341 2.181712536866186 -1.6851391726416742
H -0.4759154228521441 1.0562079359629064 -2.5201856207816955
H -1.117871465701138 -0.9094817153900399 -0.9984838413534637
H -0.6354737106113437 0.03451617097114653 0.42378463197179544
H -2.4992577343068576 1.7066800184827307 -0.1739864216250615
H -4.992468234676168 -0.3769443391237365 1.5528781593557266
H -4.723067980305747 1.296492614002859 0.6783472061499622
H -1.9852619992203666 -1.5214410519436998 1.3091631681347717
H -2.6048879028435272 -2.132592226978422 -0.3198201978454869
H -3.6624464840636257 -2.177882812475239 1.1054609867992922
