27

C 4.185754156998802 1.8162209901409445 0.29385485012172446
C 3.5555016349577415 0.7055149312701753 -0.03423692061291699
C 2.7384589397888264 -0.03990205764577812 0.963989252382776
C 2.233302354688685 -1.3961698871314794 0.6298026474437399
C 1.3254555518674644 -0.2154923332040691 0.6674541817149481
C 0.6076186378574367 0.2791923069260638 -0.46347294424731794
C -0.26123371434099246 -0.5187430055068982 -1.0170595807356664
C -1.3585528757335628 -1.1455765578252715 -1.297210336077376
C -2.6396324128291737 -0.967072159705899 -0.6764375737422382
C -3.716779070354903 -1.6540147790117468 -1.0251482078379395
C -2.7690489904712696 0.050006140917736294 0.426466611850599
C -2.4193846587928247 1.4123220999955903 -0.09054015915105765
H 4.152520973543542 2.250127644078824 1.2860548570820398
H 4.773748291520331 2.3394139850459132 -0.45170016985965095
H 3.6208092150339195 0.3124150069898061 -1.041953696981691
H 2.9890892928120465 0.1797510234945041 2.0428189695029277
H 2.181327163483925 -2.2052925725510604 1.357213391233133
H 2.4819983547149436 -1.7383667386613202 -0.4107835959520732
H 0.7565780041928729 1.246141463339705 -0.8422198165970305
H -1.2766706509281134 -1.8562047585888397 -2.0620394509683657
H -4.645637348016133 -1.467225471290879 -0.5153874161563889
H -3.7227844751643007 -2.4023032135419142 -1.801460761533975
H -2.0258130322338705 -0.23176245405098456 1.2285483177779417
H -3.7995389124225887 0.029163508958134046 0.8127267103687534
H -1.6070707582364117 1.8673722763334881 0.5221619010113929
H -3.3387774555520924 2.0464591035761077 -0.06735549219604209
H -2.021238216384152 1.304025507649096 -1.1192414556349783
