18

C 0.07518511118021479 2.411069119840414 -0.19874340139139374
C -0.3681818464147091 1.493253438668646 0.6339069355724863
C -0.42256807451405576 0.11271706201647509 0.20909873546591023
C 0.026772860330769047 -0.24369381919064745 -1.1694525808436511
C 1.532084432840672 -0.11721108646160151 -1.2472569959656665
C -0.8674262587259735 -0.7865232845537926 1.0535449705099045
C -0.9578468594100833 -2.242692840274506 0.6959780831829774
H 0.410816939506798 2.20223428208201 -1.2045908151468967
H 0.1297165583414949 3.467389758252349 0.09091049978529128
H -0.6885426701398563 1.7604073795072215 1.6222131137850062
H -0.4696739731884654 0.4788767595284028 -1.8494959964141386
H 1.92149599393462 -1.1669328744121301 -1.3507246116569736
H 1.8350502191742946 0.5042995315880338 -2.1257486429741363
H 1.9291382240704933 0.38739165420433863 -0.3439090124333676
H -1.1804193218389731 -0.48178143094590403 2.037251894804178
H -0.07042299273020118 -2.7131867775552094 1.2017471961269612
H -0.9476297775926688 -2.3976211733277975 -0.3873287979424271
H -1.887548564824371 -2.667995698966414 1.0924019148537827
