35

C -3.8528875795817883 2.299067495683917 1.9730317025912054
C -4.3476234921671315 2.076074476371722 0.7720622826750261
C -3.5788782947498 1.3700957826703042 -0.23381247253830637
C -3.9760887350971514 1.1008520019333499 -1.4442132881133325
C -2.9357871982742343 0.3810273866631948 -2.1626407613822183
C -1.7845749001074147 0.2490452280959568 -1.1445787865562986
C -0.5448375178877297 -0.4173939719470854 -1.4794770611331503
C -0.5515933113474856 -0.8867761314012832 -2.7694122015722282
C 0.6429264102158232 -0.6556060354429245 -0.7307222124006835
C 1.7800239868243504 -1.373835257943769 -1.4471553483399837
C 0.8899612444286521 -0.3195777704148891 0.49952284879666803
C 2.110552005497459 -0.5716169076859018 1.253186910933065
C 3.3213040283060336 -1.0193556791653182 1.4528654908896763
C 4.58503866632233 -1.6888299681856664 1.1016829532311951
C 5.5774911659077695 -1.807334704352871 1.9519944837135577
C 2.6736847513534046 -0.31657162910664194 2.6290064916275004
C -2.1987824396411204 0.8247100853237179 -0.0696709357726773
H -4.397529532613209 2.8202770393285608 2.7430782595806282
H -2.8513686935341966 1.9661805188037464 2.2640065353877805
H -5.3366701863779715 2.4241217516869025 0.5374310023818416
H -4.929316185285985 1.3581972948046526 -1.883841251282736
H -3.2162491564957993 -0.652120455012384 -2.42169744961251
H -2.552154204010944 0.9216645102114228 -3.041349206569676
H -1.408145635885447 -0.7343884674760727 -3.3810351631477276
H 0.3062392206204506 -1.3936741093048197 -3.109847982824151
H 1.9897241571548867 -0.7243542565500743 -2.3447665849536143
H 1.39325316000643 -2.3545406453190285 -1.717192818928662
H 2.6740447531385376 -1.3990574891025016 -0.8564646635897828
H 0.11757048479369986 0.22280446682588328 1.0931877591753567
H 4.687645597716432 -2.089735599346791 0.11743427749711283
H 5.435709015701124 -1.3860305945511686 2.9486609239956247
H 6.504576786077627 -2.278390597852826 1.7498642022119384
H 3.1484720349580733 0.6558944977018599 2.826367038894411
H 2.3402103773404876 -0.9705589596620656 3.45437614231585
H -1.7159407833062033 0.957677186933643 0.8701188828192304
