25

C 5.00114341930372 2.4174989814513603 1.13427746259698
C 4.374903773007191 1.7945247437893905 0.17734352102173936
C 2.9359536449407244 1.7685811141120882 0.06367305903977166
C 2.2811379623746295 1.0904102851975805 -0.8867514663451144
C 0.8221472713046384 1.0688729987443768 -0.995492424953236
C 0.24222206135090682 -0.2783091048193487 -0.9428246968901939
C -0.6549281262949355 -0.4583790936999244 -0.014868472057173785
C -1.636388082769147 -0.5372296088390445 0.8698208078862307
C -2.9616485639965413 -0.21050913434279445 0.3884780763968096
C -3.9544946204465536 -0.9955884452197282 1.1623914793741594
C -4.319609911780603 -2.2279846995215173 0.870805625742148
C -3.808285642572901 -3.0244362668056914 -0.2620593757234693
H 4.395840727366913 2.9413205162768845 1.8790349553786216
H 6.070094241634907 2.41377716010029 1.183201119389566
H 4.945948093019661 1.256594413081279 -0.5880297417429908
H 2.3379191587776225 2.3195956142511296 0.7735369896155184
H 2.888922896540506 0.5315760478917797 -1.6080895947851923
H 0.5634660524666122 1.478159359924205 -2.013365830081691
H 0.4344274343682645 -1.1249301515355365 -1.5375323443441056
H -1.299488218975244 -0.8347080723804424 1.8261144446885098
H -3.2498653610977035 0.8514899318803818 0.42498772649400246
H -4.408643836296594 -0.5268253442981029 2.026041534594533
H -3.24250896673283 -3.8991543495807077 0.10472940509237053
H -4.641842101322449 -3.418768232224851 -0.8979037435985312
H -3.1164233047567946 -2.3955786635147884 -0.8425470626554299
