22

C 3.0118080667411604 0.6889700341205031 1.1827036711970644
C 2.4457969033127887 -0.11068692669173477 0.29382827653561167
C 1.2005648800819262 0.3123576605512413 -0.3629669563881143
C 0.08576273990303383 -0.6424904901653192 -0.0926809916667374
C -1.03317951012624 -0.30475951233118237 0.5086547416714169
C -1.370649960079514 1.0767623277461675 1.0158650398864322
C -1.3634331377404454 2.1990339092719022 0.0688228797453391
C -2.5733587734320724 1.6755269371733432 0.41193640295207873
C -1.9276694333793944 -1.4848305322380946 0.6200848234482054
C -1.1273285845877246 -2.554843504967993 -0.021017601659260206
C 0.029775224462259234 -2.060991275767181 -0.428149771949497
H 3.928416866083246 0.412433362342589 1.6869252477021435
H 2.5829244555917583 1.6487788429396564 1.4409888167006908
H 2.9405767688286226 -1.064013508421663 0.08744982193821821
H 1.4242571345926647 0.35200158208470317 -1.4683948041861257
H 0.940585750793858 1.3302824128597504 -0.03340416123818974
H -1.2262923163212078 1.279538858318946 2.082209555367549
H -0.8239742862824729 2.938565988982448 -0.5115217919315233
H -3.650989087255308 1.7269333302280259 0.28041947511703463
H -2.8695473894926518 -1.269184453118705 0.05514532030614347
H -1.4734679796402774 -3.5692297758586955 -0.11994361259793315
H 0.8494216679460104 -2.5801552670586627 -0.9378440878237312
