25

C -5.810550789479628 0.1605531290681395 0.2649802769093678
C -4.511257081986229 0.1889215758236233 0.24895218899710372
C -3.7833973288771663 1.3819278177230494 -0.11872893076356703
C -2.460593470463181 1.4297314225190096 -0.14082406917820461
C -1.737633172250586 0.24199826046649522 0.21699613272932275
C -0.6442662779219602 0.01700342953862077 -0.47563835303846785
C 0.48848591215259424 -0.07918074412065915 -1.1337323386333324
C 1.6126194624200594 0.5704168241735968 -0.5614021564506105
C 2.4381172764936516 -0.17126563693121413 0.1361841891585112
C 3.247644670789628 -1.016730926366321 0.7209734055273848
C 4.2591786526779645 -1.639183837013242 -0.1103536503424362
C 5.426479842229512 -0.7571211803646689 -0.4504528347976328
H -6.392155005507968 -0.7102045277189778 0.5336319862997806
H -6.367183444661412 1.040887711497544 -0.00012200516861455534
H -3.9806040126155837 -0.7170658424628328 0.5220088178391257
H -4.3408948876381865 2.263657471140842 -0.3842440286066602
H -1.9780779555074535 2.344605026200602 -0.4223557916608887
H -1.938124283706494 -0.48613953537918186 0.9500508560572758
H 0.3961353260940049 -0.6440186495554572 -2.024469389616554
H 1.9151486385091419 1.595885426628616 -0.602879135617141
H 3.0470427932931785 -1.139431223962086 1.7641905227799206
H 3.8980486223058834 -2.2531305885339963 -0.9345203875048307
H 5.227166000341499 0.31680742975501286 -0.29717727311822084
H 6.309126590772441 -1.0014441142261592 0.1858310237653956
H 5.679543922533693 -0.9374787179003342 -1.5200671872682474
