25

C -4.817037940901138 0.050504935658998995 -2.6538884474416258
C -3.920452299908546 0.3489955780869855 -1.7246595573794568
C -2.828558520656264 -0.562915357321655 -1.4812026985922497
C -1.878511843891203 -0.3888179481790122 -0.5956115751091221
C -1.8233265126008762 0.7688107797448959 0.2549168008824741
C -0.8568471142302256 0.9234500793772787 1.1401730713524316
C 0.19388965870956443 0.12039264037482852 1.4263195024467417
C 0.9154819427614623 -0.8774974206277978 1.3120257994124431
C 2.1114585721717023 -1.0725292233578447 2.1383540869446374
C 3.234845173490681 -0.8522784670689965 1.5178240800273843
C 4.320818636855329 -0.5205861600665928 0.8745746502812717
C 4.726428901416618 0.8721359228717366 0.9328943540445527
H -5.6328601250165296 0.7223118223054203 -2.8424362432074655
H -4.751121179050368 -0.851376688053682 -3.2289271678518054
H -4.007232607074049 1.2519774782929594 -1.1656453731776006
H -2.7590511006864236 -1.4877426779095355 -2.0693018900762006
H -1.1115036586707987 -1.139564002781693 -0.5013105312592967
H -2.610765007289831 1.519557564850703 0.14419922526366774
H -0.9577653680754757 1.88690483819951 1.7298978662045572
H 0.776970799435022 -1.7281320284693813 0.6083897368006155
H 2.185913017475698 -1.356416192421745 3.136117512633815
H 4.798725222364959 -1.3030992264044072 0.37112027494113037
H 4.346842421136872 1.3990650547863148 0.039948766749345783
H 4.492462738596505 1.3733826039340735 1.8855182277611118
H 5.851196193635865 0.903466094177648 0.8423827731553166
