46

C -5.116446539270767 3.3546901942067517 0.820233995011552
C -3.9366572441113314 2.9358180450110067 0.4286571805708497
C -3.33981883729365 1.7743384972688787 1.0359755143434648
C -2.1642917656348475 1.3309821658148624 0.669555601934134
C -1.5745156726217462 0.12919953900668538 1.316416053613397
C -0.4477374099230693 -0.36350545242951765 0.474362083410035
C -0.2994873166801842 -1.6556949213636165 0.30492628615313894
C 0.7463430239979155 -2.403631669798993 -0.4909713986393253
C 1.161328929261428 -1.537879479424589 -1.5773797424031852
C 2.163463746290927 -0.7187253145884535 -1.2986750385235217
C 3.2177513496631147 -0.017272117563514686 -0.9595301321525493
C 4.485164958788957 -0.6467949876745757 -1.176990901368395
C 5.543592475784549 0.050363365023633186 -1.5277730946565664
C 5.430533187653867 1.4796360574288885 -1.6981870967965274
C 6.481726618066465 2.188198839468252 -2.048644981236441
C 6.37295407745789 3.675227411294615 -2.227893503623482
C -0.06120932029055377 -3.5835342195956983 -0.934994017553182
C -1.1198740278354542 -3.761529190866038 -0.1680121249974852
C -1.127717745694175 -2.7220580646505512 0.8653450866484943
C -2.4279057366763768 -2.232704043661535 1.2634734956321108
C -3.4759274126614583 -3.1207104672680264 1.4410063644112796
C -4.724647200182464 -2.6431655456586114 1.837075518532495
C -4.935765556843306 -1.3041772278767587 2.055077445771845
C -3.894907834406865 -0.4313155392485011 1.8772033308402973
C -2.62930290693891 -0.8860022789040163 1.4792583863192017
C -4.074630917742434 1.047282646786335 2.1019528240102496
H -5.648451067703945 2.824201739877905 1.6073067066806288
H -5.541010921864507 4.2245800680440295 0.3479874097638364
H -3.411409859049318 3.4749854164116405 -0.361395567036045
H -1.6389002461113047 1.865008259728319 -0.11518234811302605
H 0.23736302165007175 0.3710500823726475 0.011010006626277997
H 0.8124346447985731 -1.4342355914955556 -2.566096519118603
H 2.9867314514609595 0.9346654758513833 -0.5629878863437612
H 4.589355263526797 -1.716660671887228 -1.0527497222471145
H 6.493342227195677 -0.4298426021943404 -1.6897865683898732
H 4.48419052346733 1.9858346567378067 -1.5409409949594561
H 7.446160757096325 1.7237484616957097 -2.216025901687963
H 7.151440639785295 4.0523529912927065 -2.928823084212197
H 5.353269466857888 3.9399260318832963 -2.5700075633686317
H 6.559039830372297 4.132187601832344 -1.2139512815900828
H 0.17223072699196496 -4.228490380443632 -1.778345441280102
H -1.891800105411285 -4.540329109547506 -0.24963278131046845
H -3.2827774017946925 -4.152017117670088 1.2651850437198409
H -5.551980587739514 -3.3393378811147367 1.9780503357348143
H -5.9149244830114265 -0.9104765410356578 2.36810404356093
H -3.656318802677483 1.2858128689272228 3.0958053893856095
