24

C 3.5151959167190845 0.5042412991065036 0.0498020450817984
C 2.721828477761522 -0.2941503505757217 -0.5624527351482167
C 1.3111364890332444 -0.47299922236767467 -0.44497605962855474
C 0.7184941953470942 -1.612110024310092 -1.0278671364825733
C -0.6259721047093262 -1.862356369396627 -0.9983946067699686
C -1.4454237744358183 -0.9679732042419258 -0.37435335435826267
C -2.8980759118571324 -1.1889656992745774 -0.31210524032495734
C -0.8885633045516831 0.17056980586128787 0.21078723825086598
C 0.47496383941784476 0.42502357096587445 0.1804150696481236
C 0.6869294192591265 1.6991620711119517 0.8459897479572179
C -0.4596150267120467 2.199522983604369 1.268236915036538
C -1.539698752835279 1.2923001401090592 0.9193145512466525
H 3.2524517021418364 1.2063587317601852 0.791469224818439
H 4.626283460604699 0.5027310243923193 -0.1866777784618611
H 3.269274621420512 -0.9443623551679166 -1.3295783115428954
H 1.4216307946811109 -2.2939449477688387 -1.5111363000547213
H -1.0132814953528857 -2.7757436318971154 -1.4769466703701637
H -3.3720263823119985 -0.7275220821160545 -1.2024664125135751
H -3.0836525526408316 -2.27147515938172 -0.31584544051383723
H -3.3425770340470904 -0.7601888900816929 0.6339090747978989
H 1.6282470457370342 2.2455334219648355 0.995019951104322
H -0.5761989764114683 3.1612060873668124 1.8043805696014754
H -2.2655707150855044 1.8318608334056679 0.23517080934844412
H -2.1157799311718524 0.9332819669307857 1.808304849277714
