21

C 3.4001119486982017 0.6698357618231087 0.8883975481877253
C 2.85608744178136 -0.040278166006151576 -0.08234375792071855
C 1.4110981854405449 -0.19104674788665546 -0.2799324311219498
C 0.9885919423585949 -0.975728788467049 -1.3537488714486354
C -0.3647522814408305 -1.124050140058251 -1.5485554687838345
C -1.260958171930085 -0.4954363674406873 -0.6803978724497246
C -0.8267014014880981 0.26999647373707314 0.3669335180967361
C 0.5431907596276638 0.4204358029090013 0.5645416282490043
C -2.0085438258258934 0.80311218062705 1.105911513638593
C -3.1489833451022586 0.25634027417003546 0.3631024169125281
C -2.7213152585218294 -0.4747352934588813 -0.6426246675485419
H 4.4962891699265874 0.7279841855408296 0.9611501287228206
H 2.7988991315114653 1.194329790917073 1.6118186074405867
H 3.530732830221362 -0.5450486328307852 -0.7791736702556432
H 1.7241249252444761 -1.4449914750099346 -2.0022479224723977
H -0.7268939656772185 -1.7266954150095166 -2.3730134110874626
H 0.8291888025987637 1.0428745574716187 1.416646099093761
H -1.956728442838167 0.34302313839413207 2.126732127714706
H -1.99701595073436 1.9087063660377137 1.1545134824832977
H -4.227161340233294 0.38849127061616995 0.5513264654292666
H -3.3392611536169055 -1.0071187760759206 -1.369035462880131
