19

C -3.0881732432186366 -0.631891090429556 -0.3402115516532018
C -1.8114725933939642 -0.9932010980213052 -0.462737658517687
C -0.7599216099511205 -0.05768687376574001 -0.08362560963236412
C 0.5534522349227832 -0.32837465106656205 -0.17034680992496212
C 1.5422252502160037 -1.3266877587913224 -0.5449261655723455
C 2.7675028325951794 -0.8955173821196188 -0.35968440924055955
C 2.7344337914450185 0.46654444955296914 0.17006309299629918
C 1.3093301199925398 0.8169005294726285 0.28621217038818664
C 0.4629403702609077 1.7863895959013907 0.6515914237353073
C -0.925681849852505 1.3152215732615171 0.4484615759494923
H -3.3404472527963027 0.3384436400528465 0.033943266365034176
H -3.887652327815269 -1.3044510295182155 -0.6133804733840756
H -1.5788296254800198 -1.9700585089356282 -0.8397139516860949
H 1.29966636667296 -2.311272399571602 -0.9316509644028019
H 3.702731716746304 -1.4626274339736918 -0.5671652941302535
H 3.1789538117048273 0.5352396400988444 1.1839383909925667
H 0.7647286079892115 2.7546803378152935 1.0328021268878775
H -1.4713392365756182 1.3215599896765649 1.4147674190729227
H -1.4524473634621884 1.946788470361147 -0.30833657824333877
