20

C 4.163302095670413 0.45100447884485656 -0.04158561468189238
C 3.143183098430351 -0.35826722376742465 0.0020514144721722467
C 1.7555097160294462 0.08742493144461981 0.008800990047205914
C 0.7380391861184605 -0.7368184773247316 0.052922397046729214
C -0.6528085311699601 -0.3181057435972637 0.06064406492387271
C -1.0624306016183327 0.9962742399526998 0.022266648189987998
C -2.414491171570538 1.3562684277233648 0.031410043251376675
C -3.4018489543181434 0.39884298550439234 0.07974971447472338
C -3.006822674660442 -0.9201776378623915 0.11851724891025767
C -1.6770416014326004 -1.273053233976314 0.10948219646084668
H 5.163666437931981 0.052157831988870154 -0.043812789517344075
H 4.007876025702434 1.5323830380883532 -0.07591799144568619
H 3.3022296161638027 -1.4392182831052065 0.03629653743565433
H 1.5930526726953615 1.1511789876059588 -0.024825533658641794
H 0.9516856284216494 -1.7945283383964423 0.08553745130834904
H -0.3133032337414808 1.7738073224787627 -0.016170677851200334
H -2.6987738976245703 2.4048943072297435 0.00010730725014231556
H -4.459007236730219 0.6540991722519017 0.087798881057401
H -3.7671804924291488 -1.6950064695298512 0.15703448301661116
H -1.3648360818684493 -2.323160315553751 0.14039649224833822
