29

C 5.02870903260707 0.20711697980077406 0.4577350055563233
C 3.792663742619084 0.49926273228994583 0.8373382120675837
C 2.793909483733127 0.8463326702532037 -0.17302712368634154
C 1.6315019491813916 -0.05655292522939983 -0.19646385680816023
C 0.38044530023623097 0.25023341691829815 -0.002521897998761168
C -0.1410653375725946 1.5689348734299862 0.2824683066861936
C -1.4190241914346597 1.8249251957724177 0.4706702937828917
C -2.481620604837268 0.8434421897135196 0.42237726064970377
C -3.627210582499231 1.2674431296825095 -0.44669504858267295
C -2.0240701937322907 -0.5334159938139115 0.13464693529809144
C -2.7608610302366334 -1.6422761373830663 0.02772615768439785
C -1.860626517010708 -2.7626022801878687 -0.2660108201956789
C -0.5248782328705693 -2.1310367111291404 -0.30856607894453203
C -0.6263388514858408 -0.8321381912694413 -0.07440922770367028
H 5.327457303795697 0.21577594656497343 -0.5745723445375045
H 5.820715076858522 -0.061026998851828065 1.1751213495045
H 3.5773349671069274 0.46630581844545355 1.898559467076402
H 2.455625978059537 1.871424579900608 0.028560091151887547
H 3.286975678304177 0.8466658541300827 -1.1880098479075825
H 1.883562318160239 -1.1093876363873243 -0.4054227307969277
H 0.5561901661372753 2.402791691435748 0.34678032361951855
H -1.7177816083216948 2.880488911619927 0.6853771239390164
H -4.175047727938998 2.09989710429824 0.08228731941331295
H -4.3407614801313725 0.4483623749308643 -0.6340409052178815
H -3.2908354392728696 1.6858950949777998 -1.4361108543113665
H -3.858158588262331 -1.7010551790512167 0.14155420466251062
H -2.1526799959577767 -3.1584215478757502 -1.273426410293961
H -1.9164171028820776 -3.5737330919377355 0.4904129997959338
H 0.38228648764740814 -2.66365187104734 -0.5023379039032988
