27

C -5.5830576696746625 -0.6017775278887296 0.783218669425288
C -4.336987950052637 -0.35177343371306813 0.4265418653445472
C -3.8274780167819764 -0.78860076177597 -0.8610238041132627
C -2.610457396592603 -0.5652732542696837 -1.2535329452765822
C -1.6381147145088824 0.1445007473155407 -0.44173765838333223
C -0.4299087988486927 0.3075817975834866 -0.955544522809259
C 0.637877365486245 1.02823742794148 -0.18857768958461127
C 1.7912743113299403 0.11828218706826826 0.03177624841368414
C 1.9223347115266853 -1.1340202354656819 -0.35702964980343554
C 3.2106860910606274 -1.6712187646230063 0.061723578904627915
C 3.856694842893689 -0.724587477904981 0.7097188863162194
C 3.0187642057035786 0.4897744975596363 0.7489410216020151
C 3.7415655039381446 1.6606252952734895 0.14530275519584113
H -6.206266349622299 -1.1423262889987775 0.08154545957313517
H -5.927059125512067 -0.2637808000662495 1.743719754162669
H -3.712593800376425 0.1848220765876602 1.1190241696095147
H -4.4861109476226915 -1.3303762109763488 -1.540077023846985
H -1.8221774824638068 0.5467649773972217 0.5411439001072597
H -0.16018642438869793 -0.06400887753996962 -1.934349656246208
H 0.9696955033680794 1.9353885934086275 -0.7680211168088246
H 0.21620175718279547 1.426172023998908 0.7529150579169047
H 1.1945129085204085 -1.702415106572312 -0.907653810864815
H 3.6253644618305625 -2.661333325211142 -0.09786420588247247
H 4.848461469824582 -0.7633835383445894 1.167064740370887
H 4.124016494153575 1.4507370432038151 -0.8588440747196907
H 4.541770725464218 1.9573976474754697 0.8680905137629369
H 3.04117832416246 2.5145912885369097 0.06307128702891943
