31

C -5.349465255322121 0.33092705734331257 1.9820687750686123
C -4.718080713515931 -0.09158236611882392 0.8831364038561614
C -4.068288395706679 0.8650469787380716 -0.004722796512114259
C -3.449163897339828 0.46725107963712903 -1.0794359285595332
C -3.3558032805855453 -0.9566722676809664 -1.4798112466117836
C -2.2464239012667377 -1.6899635787990568 -0.7629748190407026
C -0.9755431827848041 -1.013135494661235 -1.098793714485437
C -0.5452010083582295 -0.029208347799102922 -0.3362183706580465
C 0.6785314821436598 0.6954695161632304 -0.5748677815039164
C 1.7273869390674035 -0.021752076903160607 -0.885294826508142
C 2.7397131422292125 -0.8354160524451303 -1.0737428156491209
C 3.431454539845197 -1.2824223641107284 0.07869022305213795
C 4.202463085291685 -0.4174664262781384 0.683943060321488
C 5.017665571685399 0.5022726933581395 1.1537168912991218
C 6.353259169807118 0.5243865348434589 0.5776617964187408
H -5.371364278178354 1.384642933207346 2.2017238526162006
H -5.83771787683571 -0.3301447159128471 2.659315058380944
H -4.705847540899418 -1.1518610075659128 0.6780221669173758
H -4.092537539723278 1.9257809054786985 0.2199729306211198
H -4.301803264137995 -1.518735976575885 -1.2866931894181857
H -3.0955228963688146 -0.9956118919992476 -2.57760946666114
H -2.4108813016683137 -1.7494124022114539 0.31193076894170485
H -0.429137197401022 -1.3476799627569176 -1.9694488676621897
H -1.1843160020966457 0.22696752194639805 0.5252859255626435
H 0.8654934163364608 1.7359065084101852 -0.5361981816172837
H 2.897968194720149 -1.0501900445139223 -2.111721741192346
H 3.4338146357498247 -2.2362696531058237 0.5546520937782724
H 4.578922217896803 1.110038624110345 1.8986204083069809
H 7.027120886174206 -0.18792658229004483 1.1310392293637561
H 6.795584584323942 1.5369697632237138 0.7525103109103901
H 6.387719666918969 0.36400322282421393 -0.5147561493356655
