39

C -3.313554230952035 1.7421463401556359 1.5971589606111185
C -2.9950290040443455 1.5125167191803592 0.3324015379324716
C -2.680700434423071 0.13428052288510722 -0.10917607848307317
C -2.2305145799108743 0.09907272279452199 -1.5205521291041721
C -3.012926252686544 -0.2859842663241933 -2.491513013897835
C -3.9160529199779757 -0.7043634897767361 0.042822466119303015
C -3.7555859984433466 -2.1252357519789102 -0.36692328997659285
C -1.5294588693526125 -0.3812482936921388 0.7265850996421618
C -0.3734857933897189 0.5293803426529354 0.5011411264517328
C 0.722806555795214 0.08091875657984672 -0.1388395424982239
C 1.8687438798037406 1.0071759494588697 -0.3546865289330271
C 2.698618133323247 1.0045900933883498 0.8377360595041207
C 3.463311909072052 -0.046617990162883406 1.0116510095549274
C 4.264054789682224 -1.09405851371197 1.0330325344010267
C 5.539745205451556 -0.9375925462126099 0.34722197726959037
C 5.960049909428371 0.49404536241405594 0.2580373215482764
H -3.5500296665226316 2.7438322514477185 1.9540411623353542
H -3.335305723987523 0.907911622618307 2.278568987209643
H -2.9643500746296616 2.342113960202031 -0.3858759405478894
H -1.190740695522114 0.4178819333984803 -1.7102417435862005
H -4.019367279780529 -0.5967700808057217 -2.324675430886018
H -2.637436347198568 -0.29421080834727936 -3.5065824429925097
H -4.226535686720365 -0.7233868553332425 1.1312537103979685
H -4.778748517905993 -0.2598566515865508 -0.48096035199626863
H -2.900411779684607 -2.2987277524126646 -1.061532922535679
H -3.6706343581693095 -2.8171156405974886 0.5137686459923225
H -4.672465646200141 -2.451698345128138 -0.8960471890826877
H -1.2247635898777258 -1.3971076896106247 0.4838157527391081
H -1.8134955017071346 -0.36326864201489856 1.799687946867044
H -0.45703978966100817 1.5327837783331328 0.8647071624701025
H 1.4430375263050956 2.036574670159197 -0.5025213906325087
H 2.3992250002695337 0.6969633037288216 -1.2848504245053745
H 2.7987021917672927 1.7168291087779035 1.607177987336128
H 3.85907781616518 -1.9158940881050794 1.5536677437766608
H 5.581110813579733 -1.4308509326712726 -0.6545229330943442
H 6.325997307949762 -1.4678365970818696 0.9581711263337609
H 6.741693761682567 0.5546235623102103 -0.5547627380426342
H 6.474167315389744 0.8698531228154909 1.1711629306508993
H 5.10829062508156 1.1683308122536686 -0.01398388405694816
