32

C -2.198634780344531 2.826247991865432 -1.5966012596428363
C -2.5137134278189115 2.178742710309313 -0.4987815836237675
C -1.6583061024789196 1.0929017616210626 0.03619679334133002
C -2.00412789493477 0.46755349444671035 1.1356593963052255
C -1.26329067969874 -0.5914716257036254 1.7456031818616067
C -1.7927405084885317 -1.1098917601841183 2.886107643237349
C -0.026032645997724733 -1.1500576808496932 1.2669197274523218
C 0.6569985085886232 -2.2757539415304833 2.010541035731168
C 0.578047682588287 -0.7391282053538055 0.19025610925970357
C 1.8528565189170394 -1.2993994862373501 -0.3217705833453824
C 2.2439688073273842 -0.5286346269787556 -1.5639598630298333
C 1.2208452389170685 -0.6312298570236022 -2.616473612330176
C 0.8306872230745318 0.5840252920297248 -2.9360348467699153
C 1.5644793395573853 1.5392388003440922 -2.1235351770560555
C 2.391050651491195 0.9089617658487865 -1.319646139953878
H -2.8079301151687943 3.6196784699344207 -2.0023924238858064
H -1.3009380298082913 2.5805506148717527 -2.1401264000037568
H -3.4165263953937335 2.4458973758570095 0.023026146130834858
H -0.7865666134932842 0.9031521058778039 -0.5519897998365981
H -2.958374426054361 0.7917318340348818 1.6356262604422485
H -1.2570912238530256 -1.9068456205493949 3.365881704914144
H -2.7143552420880255 -0.7385443759663924 3.296711652010872
H 1.4329282409209068 -2.7122332783931777 1.363753477111641
H -0.06374830451618582 -3.0945571792718094 2.2297542213905355
H 1.1115251118424077 -1.8449426154807362 2.925887411161237
H 1.6172478507103238 -2.343039274508193 -0.6647567234913941
H 2.6566716723104884 -1.3266238651259628 0.41756539565589046
H 3.2174575634604055 -0.9413718254596553 -1.93020047474374
H 0.8283958805303873 -1.5652353578635085 -3.0785367541022564
H 0.06907415014767697 0.7956118071466696 -3.700803476515177
H 1.438244577576737 2.6341374072498596 -2.1811471362888617
H 3.051897372176324 1.43052914504319 -0.6099011486106285
