23

C -3.7236048286644667 1.4616107729892034 0.31572779451818356
C -2.4495970264534175 1.1197826693109232 0.25480351585477556
C -2.0063078453161647 -0.14835803008777085 -0.2676041911958438
C -3.0662924673353396 -1.0941019599333663 -0.7537205396645309
C -0.7342500304031205 -0.4966108919744593 -0.3312310314238361
C 0.38339285804822315 0.33584677932399065 0.1095979121530232
C 1.4988925542852138 -0.5276165742806291 0.5156936418906497
C 2.6341913752296016 0.08580778478098806 0.71545981043862
C 3.755248371364017 0.7490536165680999 0.8243899985870519
C 4.536950510885964 0.8740748916443304 -0.4166259598589467
H -4.499497190811671 0.7741516018182865 -0.03779322486198773
H -4.070665904908972 2.401700627522286 0.7017235059050305
H -1.713293267081434 1.8225905247489937 0.6118246398829525
H -3.7823657024130104 -0.5732212706304032 -1.4211338098284154
H -2.609933661486041 -1.902822694891557 -1.3581364351137537
H -3.546358679075876 -1.5134728557240014 0.14921234880038245
H -0.49363497683008034 -1.4829742071151957 -0.7461670696259484
H 0.15732886844782742 1.0790089123237496 0.8771602773404231
H 1.524777280551738 -1.5690958216306632 0.6696853088069783
H 3.962299631939606 1.1148492658997509 1.7869292500882028
H 5.613728486360643 1.083356445348525 -0.16394876794533775
H 4.480175590673646 -0.06658226498925829 -1.0134766176012313
H 4.148816052993178 1.7092388722634455 -1.0223703571468088
