23

C 3.8568968649848983 0.22082690073091163 0.6006057480955986
C 2.5312197495929074 0.07408680570638752 0.6092450071493838
C 1.803955569486615 0.48599233073265186 -0.5056232849383447
C 0.526113950938237 0.28345308402567093 -0.35612718880369565
C -0.7129579299701823 -0.09912165803579505 -0.494615956737592
C -1.1206040944559834 -1.3678272540108234 -1.0911027270296543
C -1.9182176522547387 -2.2110031725028136 -0.08951775695563415
C -1.6111920801285047 0.8753214094605377 0.010573633708833319
C -1.024448939056954 2.1385019984465172 0.597370769526417
H 4.42767072867807 -0.09280619272208822 1.4536801877489698
H 4.395017612505113 0.6451644985049156 -0.23230486870613243
H 2.1100882623027633 -0.35662091173998034 1.485945171941139
H 2.2446044086932386 0.9103920838077894 -1.3689223099104044
H -1.7741522253776332 -1.2198291463660111 -1.976147737695445
H -0.22651135665667213 -1.9707714768107776 -1.3250968058140857
H -1.2340653607131535 -2.749218282339121 0.5965968814437772
H -2.481596780862209 -2.9648577789955097 -0.7050200800927627
H -2.6414040594921415 -1.5844609624201347 0.4506330791239276
H -2.204128518402017 0.4281415290286728 0.8618188180052307
H -2.4190123114165814 1.2044573907276155 -0.704747199005199
H -1.5915233780365199 2.5090595410753402 1.4763444628725997
H -0.9491351283061075 2.935850997923578 -0.18474683494765579
H 0.013382667947378244 1.9052682657724374 0.8911589910207705
