21

C 4.719539907673391 0.4422527998606454 1.5969480803687952
C 3.8515755395422087 0.030999941816102553 0.6993877010179018
C 2.436688127000928 0.24272905165652156 0.9368291349850787
C 1.5598379162576794 -0.1671524263651346 0.04084998000887187
C 0.1461588864439557 0.04297012670978787 0.2752948386245637
C -0.7413149150965594 -0.3585421826358857 -0.6058456410096787
C -2.177490077814848 -0.14743524503153346 -0.3722348423635989
C -3.0614541010437435 -0.553892574037181 -1.2624393341647875
C -4.500167092363875 -0.33268681672743805 -1.0096737090242391
H 4.398671035290492 0.9249806036392925 2.488843674068999
H 5.766589631547962 0.27727176495002376 1.4052278772625648
H 4.152064808970756 -0.46044504204854486 -0.2117943700665705
H 2.10418281904257 0.7359895434184988 1.847646309438265
H 1.8891369207102937 -0.6577822864076177 -0.865237348994196
H -0.16028619327680124 0.53210566087781 1.1812934438431395
H -0.4240446591570843 -0.855375632949756 -1.5253343412431621
H -2.4955330027338603 0.3358883167579814 0.5210727372998206
H -2.7744967518558736 -1.0496208842907966 -2.183417722664788
H -4.996160351959143 0.17016248801461115 -1.890591809978915
H -5.001641348567554 -1.3392732404278556 -0.9628542473778431
H -4.691857098610924 0.2587635824523674 -0.1039704100303133
