23

C 4.122682073913948 1.6268518939316883 -0.021141847958556507
C 3.6915618320215478 0.4440904922127131 -0.3753379793485254
C 3.121552270096395 -0.45296533301707553 0.6442646094867199
C 1.7332237164372744 -0.7846948236268798 0.3096701160871824
C 1.0564556433492114 -1.8051017376774876 0.7629801822195236
C -0.3167313755433163 -1.9927471251126698 0.3312085623066196
C -0.8969504694582014 -1.1420777570391676 -0.5187913038423267
C -2.2374370950661966 -1.2657347206553613 -0.9830108581471892
C -2.9548803192321005 -0.16516026213688664 -0.9665417653945277
C -3.627728871931068 0.9457002029574338 -0.8142346489583399
C -4.278088002291783 1.140100998702362 0.47509280097253564
H 4.5532471137951935 2.320427748627559 -0.7556762932301183
H 4.088252676850642 2.002313913627526 0.999249930676104
H 3.750985970360721 0.13061620178092093 -1.3898353652576212
H 3.702463337901389 -1.382584897112766 0.6999822313942704
H 3.128341117073156 -0.0013797217121571212 1.6572564007036703
H 1.5010186146335625 -2.4903498511553455 1.4382594732924365
H -0.30288366774686704 -0.2989255296809764 -0.8789611710642345
H -2.7631329249136627 -2.1053419786936285 -1.3432978101743438
H -3.6080222564298268 1.5680248690303675 -1.6655331781272043
H -3.594294813222271 1.0743457539507812 1.3498328878540231
H -5.14807682503813 0.4557898805552926 0.5667642427261742
H -4.721557745559605 2.178801782243863 0.4778007837836318
