20

C -1.4566247257383595 1.9665585268750079 -0.3919397473920618
C -0.5542103673937333 1.5960460430613819 0.4949555146318622
C 0.023464796230021023 0.25333172600089915 0.58643410511512
C 1.3603877556612567 0.2055218827651368 -0.10789302559189176
C 2.336466005390464 1.0704167760700194 -0.3271757948556917
C 1.0329647723948068 -1.2204945504702915 -0.39743680461785186
C -0.43552947069861786 -0.7712264048388613 -0.3873656476967849
C -1.296789629010658 -1.8752027429505456 0.13164912823105362
H -1.8102348213861421 1.2473098887692127 -1.1118764134606203
H -1.8761905989763015 2.9631257281005077 -0.4491497495029527
H -0.21863076486874317 2.3438488834170195 1.2062775382549402
H 0.11764657498676774 -0.17968114927793727 1.5997805181540097
H 2.2584142177036175 2.077199696248932 0.03430999609300451
H 3.2040704332818457 0.7710888814525415 -0.8635173325370555
H 1.3833063895546776 -1.6194518019284907 -1.344641154784346
H 1.2373339640901921 -1.8247595805692718 0.5170958927097088
H -0.693648361021871 -0.4348147268547714 -1.4013858766378353
H -2.096095839895523 -1.5073091069011175 0.809412463593707
H -0.7159259907386541 -2.6959995703164776 0.6165334465795227
H -1.8001743395651144 -2.3655083986529157 -0.7481973571784483
