25

C 4.14119343107752 1.1691709517007236 0.14721516364792134
C 3.248348798975386 1.1463282549051368 -0.8164081630811282
C 2.2679152860877356 0.07798596967753586 -0.901066696940979
C 1.3916195343370732 0.10192425105576536 -1.8901023581689744
C 0.40986420806674134 -0.9853314783112562 -1.9585721846707944
C -0.4003590253476852 -1.1562993531225942 -0.7174197908128439
C -1.1816152355262173 0.032512718587048885 -0.36328579527672106
C -1.8164696076132065 0.08130939669429808 0.7926641186192557
C -1.747222767015087 -1.0631107591265219 1.7447461072157937
C -2.5897779213179124 1.254620280784048 1.1463980131461549
C -3.2259307245752966 1.3290145657091752 2.280572092638799
H 4.195120601740925 0.41027128970602555 0.9148624402084555
H 4.852510109596157 1.9687268653347134 0.18581236532161827
H 3.2436027275739723 1.9286326687811919 -1.5516323895238597
H 2.284084765813604 -0.7119794327595493 -0.1460575089131086
H -0.24533832070401387 -0.8282325461493162 -2.838775800804663
H 0.9907805336353277 -1.9383057022371653 -2.107270151297666
H -1.122665658154649 -1.9936760761054078 -0.922118772760008
H 0.23924907393814437 -1.5222723753984373 0.11220180467967
H -1.368895971444413 -1.9817145732302759 1.283047438561056
H -1.165188050701018 -0.7734300083422844 2.6679751466190056
H -2.775422109748989 -1.3177113285434778 2.133340736633885
H -2.6388584572478324 2.078811349977579 0.45921014358316187
H -3.1790445829475207 0.49197439305221663 2.9840825278305814
H -3.8075006384983467 2.2007806773608984 2.5566460399433035
