37

C 3.03970716567084 1.9412180905407843 2.782114731904534
C 3.5076391409928687 0.848308324872565 2.2178361843891885
C 3.8283847175567747 0.825871634908871 0.7643521549844832
C 3.0355725609345816 -0.1851288267649872 0.048032507526363975
C 2.213012585341647 0.13805360926978877 -0.9386705182818441
C 1.4067851220291185 -0.8974157917815013 -1.665804475349126
C 1.651150230623942 -0.8367789259248664 -3.1224854694145208
C 2.046414548580015 -1.905101172981499 -3.7840361832032894
C -0.06566364543135987 -0.5180461181661142 -1.4580646163486823
C -0.33283018863435904 -0.5336678823371774 0.0025446788743814655
C -1.5562544179155655 -0.3044034933536012 0.4460406481775756
C -2.6317683894761505 -0.03791702873292488 -0.5122422247663639
C -3.9675227864089013 0.20755288653120865 0.12225667662501638
C -4.425146418213832 -0.9363068680707913 0.9184338915453611
C -4.66384682112519 -0.4928031829422832 2.134062511410865
C -4.389007201052019 0.9264077887599773 2.2192909269526626
C -3.9800264744334486 1.3469978110210004 1.0447683935004664
H 2.801159238666095 1.9741614625237496 3.8392479226929446
H 2.8738591963076234 2.850722558367638 2.215679547313709
H 3.663439043762542 -0.04645138043564894 2.809207136857614
H 4.931815343019542 0.5907415214865717 0.7071520219388621
H 3.7125714225831663 1.83375396218416 0.3504333133497769
H 3.1098520304088297 -1.2311310336405887 0.31753301025613573
H 2.1421586794431695 1.1849330630539705 -1.2044570897147098
H 1.586655665557959 -1.9060316177326653 -1.2543156129300637
H 1.5026727114485998 0.09324130275145327 -3.6421098234263067
H 2.2350945614305395 -1.8901825582386966 -4.862411234967058
H 2.1903913090485903 -2.832028106470096 -3.2437787523726302
H -0.2358827276514129 0.4812990262720189 -1.9099445438708573
H -0.6612977026990021 -1.2789144145693416 -2.0091404273935964
H -1.6927071085355385 -0.3286333155780936 1.5293720755476292
H -2.7323378534149185 -0.8094276461399748 -1.2979713260375458
H -2.357887143965645 0.9064130379808109 -1.0632947696199544
H -4.542381706488902 -1.9373155400853368 0.5776442617127185
H -5.022843136308609 -1.1423664073119548 2.9492963762669753
H -4.518872827309611 1.5078660404374558 3.142447980403955
H -3.7020587243423155 2.392509190296031 0.8309801154652188
