20

C -3.90380990013588 1.474908135868352 0.8493354342485724
C -2.850665656129888 0.6563756398443128 0.9295293164950064
C -2.5207780041010723 -0.20965509093636867 -0.16523831336533673
C -1.4861110105535358 -0.9783260807490904 -0.021249200096705816
C -0.33610062290321446 -1.6162481699831377 0.13834608016675728
C 0.8513181803108216 -0.9377943001347895 -0.28043846041796755
C 1.9837687765543417 -1.0266711386882557 0.38244199671035556
C 3.1650874496065375 -0.3060296448199898 -0.1001031782461614
C 3.2288534166117895 1.1327412549791702 -0.1306090440793012
C 3.0582450354801094 0.5156988006309247 -1.3366205399186384
H -4.4944858458487715 1.4772276913772164 -0.034723398580600424
H -4.167037926367817 2.1352408310022413 1.66647684862964
H -2.262480297938426 0.6627506564370444 1.8268522004329368
H -3.016193786193228 -0.31443115899469165 -1.1063291879596835
H -0.46624098269233266 -2.566592725989363 0.5696477970817418
H 0.8190214591540195 -0.3280950738866093 -1.175753823886244
H 2.0034525497175006 -1.631327299084888 1.2645185971852329
H 4.129632587834039 -0.8338636324827977 0.07324873415967754
H 3.32852406829696 2.1069609448772457 0.3294684591629855
H 2.936000509297117 0.5871303607299199 -2.4053275082400964
