14

C -2.3923897809304475 -0.5015298827196041 0.018969334098087445
C -1.446298825880062 0.3903589841369193 -0.1292176390635557
C -0.26944946050376817 0.3577829321315529 0.7540878038470681
C 0.7594108232250081 1.3767413582143055 0.6566383828321382
C 1.0403556909235443 0.17648035087075117 0.06878952779013944
C 2.001992916727394 -0.659760435170176 -0.7012525060203914
H -3.275819994390126 -0.48251035393353375 -0.6390227236939833
H -2.2874337123363317 -1.24993432899406 0.7946606170704313
H -1.530132826249065 1.138235077745383 -0.8891269642028435
H -0.41517296431276046 -0.16729594243005924 1.743622013856827
H 1.066016318766721 2.396131062235604 0.8993011266980586
H 1.7819121794270603 -0.6811396862278365 -1.7698643844179052
H 1.9087683276061176 -1.7202786765281661 -0.3305951759174007
H 3.058241307927922 -0.3732804593327022 -0.47698941287568075
