35

C -5.75418477274686 -1.4502375045752216 2.5804647420396685
C -4.789434788466197 -1.284091599045979 1.6996209187397762
C -4.977869249166183 -0.4218647160465659 0.5603755629914872
C -4.030019226313538 -0.23959064997838742 -0.33295118119967543
C -2.781416609655179 -0.9039353647565072 -0.18411496732159738
C -1.712398557386743 -0.19288042768693975 -0.5136996357539773
C -0.7504532808797975 0.5986367660529961 -0.8864730550687268
C -0.38352665581141 0.5431842575574939 -2.2609445977689155
C 0.5865628343285525 1.3237217240422028 -2.697894962913273
C -0.1952342019534318 1.4293477720647554 0.17051715457840128
C 1.2538415984064408 1.1033900828174414 0.28808816351958794
C 2.0540072305501016 2.0075493886817917 0.815433666318619
C 3.4857745294088827 1.7596925024591024 0.963243936758094
C 4.0407957962539856 0.6380091648741065 0.5831284285774676
C 3.1976405588405825 -0.3980411272947996 -0.008025925932212657
C 3.7064666384410385 -1.5499248329019604 -0.40920734817684074
C 5.154768181703254 -1.80783918094427 -0.26278714497138134
H -5.577025360577467 -2.100850730491268 3.4170133984179216
H -6.691320128672711 -0.9429977980874422 2.4560825548145324
H -3.8321909516787875 -1.7898679603165824 1.8085287085344444
H -5.915432933448711 0.09315027497473201 0.4249322817683968
H -4.23448035680983 0.41789606454079986 -1.1615190127303654
H -2.518820443289009 -1.8653355153243134 0.14056858232504393
H -0.8622979225772244 -0.10732924416630617 -2.9598062223268538
H 1.118095532867814 2.009084480629759 -2.048778204239874
H 0.908309228345622 1.322621324956835 -3.739201592542822
H -0.245370616120485 2.5148939171625138 -0.08229512270063628
H -0.6377617952017471 1.225413948827869 1.1416836190212427
H 1.6277075415057018 2.9437458630126545 1.1392755112948971
H 4.088762376656007 2.53122132398681 1.3990543468884933
H 5.094940842770699 0.4677576988838228 0.6971593401817611
H 3.0436796863238325 -2.2843506591306646 -0.8397690418630945
H 5.424002730668558 -1.5510435516634744 0.7846910481873184
H 5.350276325204588 -2.8541738889402666 -0.5031591177032089
H 5.753606218480552 -1.1849618041757437 -0.9451840500598233
