19

C -2.3264828082413094 0.5818714775888205 0.8590153458528687
C -2.5435136035643366 1.093836193745213 -0.3423461993261545
C -1.464513352256532 1.0825843056276103 -1.365562227469845
C -0.22171264754422518 0.4266190482258385 -0.7682993113691633
C 0.08786950691248066 -0.7838558979644509 -1.0711587699051137
C 1.109280061897856 -1.6921459141163204 -0.7395345107863085
C 2.1206110288120774 -1.5100181105118957 0.05518574678865669
C 2.397156141757576 -0.2575193201235687 0.7911358399280255
H -1.3621758840887352 0.15215019714302086 1.1031463828591561
H -3.0769979808716026 0.5653949120553776 1.6377903656364063
H -3.512418816368887 1.516824377608468 -0.5633591172039555
H -1.7484215346163043 0.5074598751175227 -2.2546479041237357
H -1.1891499929999165 2.097581377698707 -1.6645436804587574
H 0.32258766330900646 1.092431177236153 -0.09556512145502401
H 1.0517759815457461 -2.701710193605816 -1.2156262672822775
H 2.831364262004235 -2.347821426217109 0.1973388840668816
H 3.3442254823042457 -0.3548053889468642 1.3819025708789157
H 2.594249745035159 0.5606397222276374 0.07917515017112144
H 1.5862667469737075 -0.029516412788053288 1.5231209388618583
