20

C 4.431464143673078 -0.5518683915474296 0.07515121869029796
C 3.168861662032405 -0.22099152449144577 -0.18662845455837956
C 2.3046271873920916 0.027792135481954777 0.8793475878430473
C 1.1025828726037725 0.34030596114159684 0.48822128263271963
C -0.17684379299390118 0.3650495617055453 0.2526431029387331
C -0.7901390418364249 1.6035654855393195 0.003123944548538265
C -2.1089117069004817 1.392993853902489 -0.21785237339174038
C -2.3481366578193366 -0.04982336864680794 -0.10364350874824033
C -3.632460457638297 -0.7660709644133553 -0.2630751314946067
C -1.1826698572600243 -0.6664038000263703 0.17981547986210267
H 4.8103485184530514 -0.6345299517600711 1.0818454804720383
H 5.0943918911709725 -0.742404511118009 -0.7250360273811428
H 2.8766600283312176 -0.1611738570380422 -1.224865959176323
H 2.5674287086112026 -0.02578279009044481 1.902919520946069
H -0.40643047505801844 2.6056052285087485 -0.035875571992858894
H -2.8840685149068737 2.098078823688334 -0.43902014955114477
H -3.4357474587484957 -1.7515649622421656 -0.749320537803714
H -4.3652917125050275 -0.21100959603783315 -0.8610191391329025
H -4.039995719662908 -0.9417017702881204 0.7678199317174094
H -0.9856696169391874 -1.710065562267862 0.3309678364555005
