20

C 3.9856290929791074 0.5148540819028811 0.6724885660238978
C 2.9186860758912068 -0.21024754652401245 0.9430103773137392
C 1.5345151251388016 0.20316372703084778 0.5568807049687957
C 0.9754604819348389 -0.8393845614860685 -0.338706246232387
C -0.39159363343845077 -0.5828653285979475 -0.8128443501796602
C -1.1245199685618956 0.47054498913035053 -0.48641954114447045
C -2.504271416635702 0.6508797778239324 -1.0147762763181172
C -3.5473634013494078 0.34099919132339007 0.04610579763752977
H 3.887943344580577 1.4500491297486555 0.15206049860102272
H 4.967697901959257 0.19403214749530362 0.961418178049478
H 3.046879264380938 -1.1585694232152637 1.4741305690188466
H 1.6460134816587297 1.1578413501769522 -0.03309246441689137
H 0.9771828636370189 0.35627579643560053 1.4961887436887211
H 1.1263935951497854 -1.8449953560119736 0.05665498412329881
H -0.826533827769359 -1.317997527146609 -1.481475828537542
H -2.71251980611543 0.00448901412840048 -1.87604552073503
H -2.660834006335241 1.6995536659141024 -1.3465747387302105
H -3.933167996441245 1.2498629373449466 0.5312523871041723
H -4.355095854684092 -0.3014930135646688 -0.34443203398943145
H -3.010501315979511 -0.24336433805368915 0.8441761937542708
