31

C -6.005805539718034 -0.6264182743958201 0.7855801089486741
C -4.957717103515896 0.05248774084396131 1.1772698390354606
C -3.6199997247713793 -0.5060338527917013 1.125187373743871
C -2.5566151969215962 0.17774064039374202 1.5208218439923675
C -1.2046132168990895 -0.4305705489089812 1.4513017240124966
C -0.1481939000416084 0.5752833979920298 1.643972858966505
C 0.2633030859968965 1.3113156406847013 0.6272757176025022
C -0.3548096830612272 1.1075572803271072 -0.7064672608050369
C 0.597310458772363 0.38072884408118096 -1.5406217029818663
C 1.6308675351361148 1.061399362156236 -1.98371130731818
C 2.678351527272348 1.8181563261756588 -2.274962877698506
C 3.738104847337851 1.8027599113363058 -1.331976205578969
C 4.269622691916299 0.6155036288058957 -1.078492430742307
C 4.6563842266940485 -0.6128351057647379 -0.8305698697396635
C 3.9222287805877487 -1.3113054802584037 0.2259757352716562
H -5.902611075526289 -1.6392587374063 0.40592641600627527
H -7.0001933502748335 -0.22490291724703157 0.8192777480331628
H -5.077887414736872 1.060514725253185 1.5528423871984354
H -3.4948643849743446 -1.5107480615768598 0.7513061095930152
H -2.6398656558714264 1.1820722118849127 1.8995973895555727
H -1.0650460838977023 -1.0818148560097047 0.5768383607432357
H 0.2928665079478352 0.7075933620012137 2.63636071132919
H -1.3232617078459774 0.5852057134585278 -0.5719956000503863
H -0.6116314674137517 2.115708813820872 -1.0900868525627965
H 0.5945795724811956 -0.6278103205253143 -1.8544800954541156
H 2.5567658904031436 2.3304968494821376 -3.1897503586973803
H 4.200357146214969 2.5710435736088315 -0.7749114921760772
H 5.456086437557082 -0.9448275987106662 -1.4329658932141707
H 3.555671042183258 -0.6265818318879784 0.9946575787841596
H 4.520255402152659 -2.1489705880065064 0.6846365118366557
H 3.0303603528141 -1.844261795427386 -0.21783646763465395
