17

C -2.7717795121625612 -1.1674153016699247 -0.9227794155378514
C -1.5370764218627209 -0.7606935501191283 -0.9674268246739224
C -0.9024777824985386 -0.24923074490562652 0.2371798775458711
C 0.3413475290954996 0.18044035386160703 0.27029450642509356
C 1.1357824105728302 0.14532534230194988 -0.9684506224318279
C 0.9153514705822128 0.6735196143615195 1.4883699822947807
C 2.142048348378564 1.1195961938935537 1.6181803232252976
H -3.3350067674768478 -1.133773753306048 -0.01276748223089374
H -3.250778839678232 -1.5464578208062951 -1.8035950016086595
H -0.9739531012439817 -0.7955290547855862 -1.8768532864203091
H -1.4661261681541726 -0.20996337704042634 1.1731552527535645
H 0.5459772276540398 0.5390893135048931 -1.8453808437756314
H 2.0618073300782402 0.7505968619268363 -0.9280529301128057
H 1.418205454777951 -0.8850276671800201 -1.2727867587306307
H 0.2895588372303152 0.6800767792922088 2.374947501061056
H 2.497659211084438 1.4809357898291893 2.5995877186696394
H 2.8894607736230564 1.1785110208417686 0.8363780035478934
