19

C 3.3778195643400544 0.8762440340313015 0.8157294900311782
C 2.2590548394324212 0.3140520989034464 0.40535157081019696
C 2.261235413838368 -0.9729341743770423 -0.25336644832154265
C 1.2132259710629056 -1.6280889089606698 -0.703593013747204
C -0.14437117956864137 -1.3438369246051323 -0.7067308649705388
C -1.0040853814154984 -0.48872516480586364 -0.36303356945811804
C -2.422409005915554 -0.8036554479629331 -0.6796309891008337
C -3.362513238213736 0.03788730420393006 -0.3517028820615157
C -3.143465597783541 1.3343844053693383 0.33612491929713867
H 3.3936402326483845 1.8371726000109536 1.3094715870561289
H 4.340627923648458 0.39866780147695086 0.6766522029401386
H 1.3436266009471969 0.8293115912116018 0.5689190427113626
H 3.277101488046497 -1.432107338446546 -0.37721566122551253
H 1.5017618285278804 -2.609679786609016 -1.1746007992137222
H -0.8727950626765344 0.45951551824864434 0.1368976461736743
H -2.723347951546687 -1.7093424786982219 -1.1763331901087988
H -2.883600162763724 1.1157437406101773 1.4011525282094262
H -2.31419615971585 1.880166972566353 -0.1188572396307545
H -4.097310122892395 1.9052241578327953 0.25476567060932803
