16

C 3.2182182347644384 0.18487737638715382 -0.7928933181237199
C 2.3236756157138747 -0.2491190497477879 0.07257488040623707
C 0.9202834317545558 -0.01108444941247413 -0.17371717559100863
C 0.017475849789837176 -0.4424336445107166 0.6881293150600383
C -1.4199471768693877 -0.2226182660893964 0.47775654629418424
C -2.295321259299918 -0.6572951797480674 1.3421377557734295
C -1.8857259919570986 0.5025470948840643 -0.7319730265630429
H 2.908037350049735 0.708917743697331 -1.670283981270214
H 4.283634854911273 -0.003596344599204998 -0.5923448277483677
H 2.623411740702228 -0.7901449843156448 0.9808124021179987
H 0.6293819599852264 0.5162906434432827 -1.0592311666717047
H -3.3388348488890607 -0.5001604017504505 1.193667147312262
H -1.965924709281449 -1.1789564889131465 2.213063611195006
H -1.2229170580320847 1.368313338703825 -0.9733009256156676
H -2.8919610792555837 0.9421025903305291 -0.5573466676332139
H -1.9034869140866488 -0.16763997835924094 -1.637745499440325
