21

C 5.268080099481794 0.41409092766834643 0.2798876425687471
C 4.1183848267637035 0.6795827927376444 -0.3125005705105856
C 2.9418113345412595 -0.10198226368453402 0.03959981587596806
C 1.7952512097337658 0.15517323911140815 -0.544240270929134
C 0.6055111917488872 -0.6188217116677674 -0.2030429055646196
C -0.5664798321458498 -0.3981628539451703 -0.761462237343119
C -1.6997737492895615 -1.198322482128177 -0.37921806131733127
C -2.7183046932165533 -0.5464731426636353 0.14373315361226188
C -3.6968061961369623 0.2026133180745609 0.5658206096741684
C -4.614351942170816 0.7000597203233926 -0.4717778921898721
H 6.122307909116303 1.0081590199564823 2.1906951925706443e-05
H 5.370663485843127 -0.36527410095371593 1.0203155125834436
H 4.038753098209004 1.4649647467979696 -1.0513857753735285
H 3.0341599333785805 -0.8993737050312937 0.7932960529066336
H 0.6842458098713288 -1.401587734136898 0.5332134014400465
H -0.6798230905584209 0.38099892440043104 -1.5050190954915716
H -1.8578470627876102 -2.234699487242826 -0.44840856709068555
H -3.711806552951013 0.3638901301190851 1.607063050230194
H -5.460221507587954 1.2931282057861664 -0.06904369963267623
H -3.9988895738305996 1.2993810930038177 -1.201015280550099
H -4.974864698012449 -0.19734463652528486 -1.0396376597730335
