32

C 5.876320306260101 -1.7677303170369092 -0.6477258951026615
C 4.617150584204548 -1.5154369387938016 -0.3509582732855318
C 4.0113618525248445 -2.1181894250653053 0.7839026278110491
C 2.7583326419049543 -1.8238299817197614 1.019786362351701
C 1.5279528023046594 -1.3966276364766408 1.2259442528640774
C 1.4123492340625663 -0.20550928194351692 2.015124453321065
C 0.6755238336269577 0.81933086751972 1.6831113478058306
C -0.08826751211002133 0.7586501499756658 0.4221915082652769
C -0.8421569498129525 1.7757990094468472 0.05690051543695626
C -1.5949923342714032 1.7119026772264792 -1.1891744969942897
C -0.748255651521297 1.5949350836556189 -2.4183161641149487
C -2.7589895035462324 0.8299649841988941 -1.1795524962520099
C -3.5921846637029393 0.8641005114202583 -0.15637536838347346
C -4.7717583598497955 0.005969936244160994 -0.0920904422303821
C -5.5728259663736806 0.06592075668528619 0.9328837321846685
H 6.432539820890008 -2.436341522974128 -0.01542603220890842
H 6.391752499244885 -1.3433797490903427 -1.4923658979857621
H 4.097584801700484 -0.8404447563048129 -1.0105644037036672
H 4.422608495693022 -2.7855755855170163 1.4905850678539758
H 0.7962799147092712 -1.9995125413510366 0.7730378902996281
H 1.9733966894596067 -0.16305590560184685 2.939596848126961
H 0.6232065871908103 1.69752096035713 2.317144047354502
H -0.033373081795599564 -0.1161487806868266 -0.20478654203824348
H -0.8899624823506112 2.6634029083493704 0.7052157879382207
H -1.2794952874499272 1.8783959125606011 -3.3239238487520852
H 0.20350176154996324 2.1298196896469106 -2.3029402035189492
H -0.47789823816809124 0.502879176049067 -2.523025313467116
H -2.9921880769513534 0.1305889140677679 -1.9761417193571154
H -3.378196442227787 1.556525080500427 0.6513765914803217
H -4.969719781007752 -0.6700836885838507 -0.8939177572606769
H -5.381111213468478 0.7504547114234882 1.7547441694648755
H -6.448486280717429 -0.5542952181795416 1.0057396520971738
