23

C 4.730788504653298 -0.42732943408147833 0.8251531729978958
C 3.4744490620717747 -0.32296414536938256 0.46527295160190674
C 3.1362197943605223 -0.2171980161055993 -0.9278754045375274
C 1.8723574009255894 -0.11569699752676586 -1.2300608081299569
C 0.5876220826861384 0.08895510171738151 -1.4337051874608406
C 0.15786200463679387 1.4586565566606386 -1.405194170174196
C -0.5410710738733729 1.8531413141268338 -0.3520835799094116
C -1.4843133991730217 2.119819725541789 0.532873324169673
C -2.838749585186075 1.7815076769693374 0.235799376128151
C -3.039031039676403 0.5701988100757 -0.25158533346124873
C -3.139407953047314 -0.6828741811287444 -0.6378940144657719
C -3.3033710662440243 -1.661200625044637 0.4266712807884792
H 5.498824989925174 -0.4335103667124896 0.08348208071501308
H 4.986075442952553 -0.5060616031442955 1.8585008859174899
H 2.7245193629232327 -0.3190586698627818 1.2212052131378075
H 3.7778845907212397 -0.20775993932993955 -1.7687588863552641
H 0.0440596788042302 -0.7971887773443673 -1.5893708846918153
H 0.3475081241985851 2.185263825799051 -2.1544081580619316
H -3.731016925196164 2.3331707253961826 0.33728718698327603
H -3.0843610539448423 -0.8011462025890049 -1.684515772947521
H -3.87172599149963 -1.243993212279576 1.268167686558391
H -3.94215676917957 -2.498194410434472 0.017869489773188786
H -2.3629661818396857 -2.1565371553332104 0.7457703336606412
