26

C -3.725320472020871 1.2350588303736865 -1.1234813267499395
C -3.0722286377300696 0.8968538876119402 -0.037400643699134456
C -2.3563735189199493 -0.3895216310899182 0.014023168676025233
C -0.893663875909052 -0.19652653478570037 0.2538552531063575
C -0.13218229167858353 0.5730859291680451 -0.7044709017448041
C 1.0735305574861185 0.9418299481164468 -0.39332567730497736
C 2.374207808419985 1.0643899717964491 -0.16677784666126622
C 3.2259793340956637 -0.10272022648109974 -0.5221289707629361
C 4.61318275446275 0.45877619071366826 -0.8455659156286792
C -0.3690664494507751 -0.7398443429564399 1.331172824287334
C -1.2357907332106466 -1.5074213196810893 2.2462630117329065
H -4.258342349120959 2.196480883624368 -1.1573010160928057
H -3.7864199345769345 0.6303954642666796 -2.0166795988536
H -3.0516445503627296 1.5614655230213497 0.836865944629898
H -2.817084939670243 -1.0731739897308905 0.7577622908459336
H -2.4235644549335573 -0.891503664919078 -0.9734212403608897
H -0.5249105116898243 0.8440182660058185 -1.6568525039328497
H 3.360734836629932 -0.7937484745176177 0.3323114042483801
H 2.8531196904614324 -0.6745595183166923 -1.3723170925070067
H 4.612538093698863 0.9734802608816958 -1.8379196652986842
H 5.3622876564815645 -0.35011710381803984 -0.8379218251974346
H 4.864013618902655 1.1778140832730302 -0.03774369157672882
H 0.686929176072017 -0.6042578184863038 1.510350952514018
H -1.6778692799964097 -2.415655972347129 1.775763419809814
H -2.0874029409016384 -0.9144870145594701 2.6495324435842926
H -0.6146585865372656 -1.9001116271637524 3.08927953181732
