31

C -6.1346350345921925 -0.2765058853141978 1.9273492745142198
C -5.38050521895355 -0.5388816308555132 0.879586472703813
C -4.055757656494023 0.11486275944865695 0.7645660975919533
C -4.039862660443956 0.9082024552566479 -0.4688155132540297
C -3.448775950350481 0.5734506193960668 -1.5861655831752366
C -2.702103185909698 -0.6320222779743803 -1.8239006593260845
C -1.5478909539965484 -0.7184354366649941 -1.2302930983967675
C -0.3578894225803768 -0.6888460486689822 -0.6708913678438351
C 0.6847242530889193 -0.11120068913239003 -1.4286530912863584
C 1.5268918139728933 0.6727560004750015 -0.796201725865749
C 2.3507048366984766 1.3598925449226944 -0.04052311390615804
C 3.4257708887134077 0.6222818622168995 0.5493927887839172
C 4.206158710681536 -0.11740851869220172 -0.17848915187668982
C 5.310235321649089 -0.8719200037759401 0.44436488764517007
C 6.541522404651672 0.028123088958652454 0.39968555710645104
H -7.104134486549671 -0.7653804239127282 1.9953613314859329
H -5.8178598388532 0.4072735052631323 2.7163538675191954
H -5.7150109489322 -1.2138895053962528 0.11922515712988302
H -3.247667606091986 -0.6597519963914625 0.6646017208989968
H -3.8316307517417774 0.7273245695675931 1.6658449291671829
H -3.5305787871474137 1.2762254792010603 -2.416044975640722
H -2.9561819901510686 -1.473676141129064 -2.4220714080241925
H -0.32442087667962316 -1.102808131533225 0.2864063054639277
H 0.9232630024668509 -0.20067198810061754 -2.4645735868227527
H 2.1058282966466453 2.3862207969513753 0.034907908536037105
H 3.574966046264569 0.6940112303940382 1.6165964467399123
H 4.080336549335612 -0.20764042935722035 -1.2467792902819181
H 5.061007915959146 -1.0351413683297848 1.513111825526688
H 6.427385677891868 0.7390864564384148 1.243888743571425
H 6.5022806238520765 0.6424068481068994 -0.5353866953556807
H 7.473829027586316 -0.5379377413693637 0.48754594667249984
