21

C 2.3155099258123997 1.7149457597857023 0.2412307967862071
C 2.264912105011907 0.44666847958414446 0.5358268829567415
C 1.0375200119894008 -0.3697347870175663 0.6017079157010292
C 1.0820202485510426 -1.6544242157784377 0.9266301002694577
C -0.25294134675748764 -2.2199066688534836 0.920792404809167
C -1.1022307586965046 -1.2890292117053306 0.5907159825241112
C -0.33965728146895313 -0.04148004117099853 0.35268123109593413
C -0.6924542825688548 0.537953259461103 -0.9902959823092109
C -2.2167953419796933 0.7646824505098159 -0.930845645278014
H 3.2342231855296495 2.249421388949123 0.20852150845688017
H 1.4186725013250152 2.2594649896941736 0.03546799212964954
H 3.247054426863476 -0.012538014413752184 0.7458201715627809
H 2.0091287013447805 -2.2162060196739226 1.1685017421825366
H -0.526300372371689 -3.2609826266670323 1.153586118636146
H -2.209394544386169 -1.3915469294194844 0.4980078473312187
H -0.6866541399619163 0.6664838825024619 1.1646189185936655
H -0.5277819128148804 -0.17558862756533108 -1.80679730969215
H -0.29491922797449804 1.4949012190548912 -1.250984721043293
H -2.4851867462100716 1.421679845575829 -1.7797374429217874
H -2.5053529257896887 1.2422723134138858 0.017273450659203136
H -2.7693722254473507 -0.16703644626580677 -1.0390199489542222
