14

C 2.84802849408733 0.26127320995391173 0.5003441419394005
C 1.3867176847160139 0.14707001416033516 0.39147803669684367
C 0.7519016470204533 -0.006442253638871489 -0.7630099662828056
C -0.6802602646169036 -0.11316449233133206 -0.814409247162244
C -1.4486252467190361 -0.0673095500035105 0.2569136230696961
C -2.9100175720928285 -0.1743102693635337 0.22473455101269849
H 3.265238566476323 -0.22413570438313826 1.4066866672691354
H 3.3460795665321954 -0.2626160105885607 -0.368247001607533
H 3.206551221113915 1.327947421434839 0.4019339252889272
H 1.36338909855773 -0.0464577980637247 -1.6531048651363327
H -1.1598281758619078 -0.2370850874151633 -1.7718300137441019
H -3.2813756690887668 -1.227405243722081 0.3212367934239406
H -3.434389305148846 0.46939832965587935 0.9392204655946903
H -3.2534100449756966 0.15323743430494888 -0.7958342565557498
