17

C 3.2615651377435624 0.055273965206178576 -0.28029750484431765
C 1.8235627935633258 -0.21696232743616897 -0.22687899751994958
C 0.8853068906124547 0.6588449999478848 0.0025316320977295105
C -0.5062809482053007 0.19123038985247487 0.016515857883408022
C -0.8521784980770136 -1.227054760015286 -0.22049727122258933
C -1.4648443941128346 1.0715047114418708 0.2482269361318801
C -2.8748576175260823 0.655543265727958 0.2730809755817785
H 3.4955512842798893 1.1166014984139971 -0.0723247373216609
H 3.608925843030275 -0.23685592144097103 -1.3144284462853912
H 3.850034024047706 -0.584793667712222 0.431807626561855
H 1.1254597273634703 1.6977094458999384 0.1770700202426901
H -1.0556561403774798 -1.7391829253685285 0.7280530600119978
H -1.650010199589134 -1.3317777146187526 -0.9712224422827024
H 0.06473306323073143 -1.7135867921186907 -0.6531515733991431
H -3.540854662218207 1.5400819238326904 0.35745152699278254
H -3.182088715549256 0.10414207994213469 -0.6420601480664877
H -2.9883675882161405 -0.04071817155451329 1.1492280194411555
