17

C -3.9334223362958047 0.0741142078260123 -0.116983219932744
C -2.948515746576566 -0.39518716614156324 0.9002919640576645
C -1.711797464793441 0.03944436802758827 0.7956145007591952
C -0.5691756380437124 0.6344511804887388 0.4796202775209223
C 0.22779178537805622 0.012623792405412743 -0.5231883894786553
C 1.358625372164994 -0.5118617943151186 -0.11233056609354237
C 2.508973839060242 -0.9250281981463212 0.3626604853446712
C 3.5863896267690234 0.049359698936822925 0.3639159293953449
H -3.5289541789708463 -0.17635232071242213 -1.1341491457971522
H -4.893087278200607 -0.43079932236584195 -0.022585370336696484
H -3.9616925721868874 1.1691187526682623 -0.060463217795735276
H -0.3761441217842416 1.5393046201270213 1.0300232828575715
H 0.06302285787591781 -0.09978536684815047 -1.5585599889206387
H 2.4936301853253315 -1.9295574709325312 0.686854440234597
H 3.340883181720972 1.0232961436017074 0.8363467029702708
H 3.86126885345509 0.27023086102055577 -0.69960911025215
H 4.48220363510254 -0.3433719856401854 0.9016602043302092
