13

C 2.9519790401999475 0.4840915114694802 -0.13063506344935438
C 2.071443666780811 -0.5311128920853485 -0.7583800662177881
C 0.843216314409377 -0.7433326151562297 -0.34971375431366725
C -0.4425813425187151 -0.7671678652337768 -0.14388923799447964
C -1.7409604016461382 -0.8678376535379524 -0.18379442642092178
C -2.585865873187195 0.2669958739405953 -0.6204145803734593
H 3.793918434820727 -0.03287915140161765 0.37826642397068044
H 2.426145591572967 1.1151000154527504 0.6084899210873365
H 3.3209598733358145 1.1365950643529765 -0.9426031064994872
H -2.1845143168903762 -1.8076073847464025 0.11231586416647199
H -2.945041083125188 0.8850339709339841 0.2274720899562977
H -1.9892557032855425 0.9409515964646541 -1.2757811764866527
H -3.519444200466466 -0.07883047045311654 -1.1452339145157246
