13

C 2.2092947871404354 -0.2882901630046447 -0.14455773646357603
C 0.9247651801101816 -0.9357214375476031 -0.5022576764105396
C -0.20454974765485537 -0.3104093078442952 -0.1693482980963895
C -0.5620932934086931 0.9010115758948721 0.48530009262972834
C -1.8165674648651111 0.6742572322226733 0.35575021183582745
C -1.6233937119117219 -0.5795168279263112 -0.32272650534929187
H 2.59633746907523 -0.6510760155665343 0.8235939005432327
H 2.0600638114845964 0.8186203039981076 -0.02341829951840741
H 2.9427819524043892 -0.47085200207995187 -0.9787607050725095
H 0.048462743466580936 1.7291749560987897 0.9373461905073459
H -2.7076024981037774 1.247645411463867 0.6617859229336874
H -1.876844816672992 -1.5062268781333261 0.2588696197093423
H -1.99065441106421 -0.628616847575608 -1.3815767172484381
