14

C -2.4997984033860385 0.2152601926480914 -0.09074760589345057
C -1.0727409851147798 0.2603924174119019 0.2458886648355792
C -0.26287866113801245 -0.772071764958157 0.32553459915492045
C 1.1597632863087264 -0.5120080922678771 0.6837803268441506
C 2.2082841444116816 -0.4651496615761019 -0.3645132050270398
C 1.6971899273041613 0.8438581685071788 0.21277622297224613
H -3.0491047181886692 -0.6263787604795255 0.32148641452445365
H -2.968361605639541 1.1492587208826983 0.3357502184149103
H -2.661437753511387 0.2895788802046411 -1.1832474246259135
H -0.5813784504144396 -1.7716775211940228 0.1462460922369481
H 1.4021881198090342 -0.723161004113215 1.7377736014776521
H 3.2445496918094565 -0.7188740260897526 -0.08707850596327499
H 1.0663510900226485 1.402107492643615 -0.532728822248542
H 2.317374317727131 1.4288649583805368 0.8890633917712997
