18

C -3.3368817713422625 -1.057079985974974 0.24883312481864373
C -3.3599195323050437 0.3135495915310435 -0.2554674144000027
C -2.2607538127503077 1.0323478222762392 -0.2696624773027718
C -1.030045059016528 0.44198811415041395 0.22249501915596234
C 0.09918436629624214 1.1137292533102408 0.23220361270045362
C 1.3758503754995468 0.4981935502869846 0.7438766757642042
C 2.094365362067256 -0.019675090433345484 -0.5050667581797351
C 3.4900006397699 -0.4717462942071996 -0.20594824642185355
H -4.149923267190773 -1.647347046448974 -0.22250990135329893
H -2.3923169541206324 -1.6047147639721169 0.0487480307573966
H -3.4663178739631952 -1.0118735702267214 1.358975956688416
H -2.325210452280352 2.041022815676761 -0.6514920457132487
H 0.09420479500138496 2.1320984108679824 -0.13975640376183912
H 2.1522594683361604 0.8653136922576457 -1.1942930411350465
H 1.4636783223594951 -0.806973611365027 -0.9567485589649397
H 3.72080140109239 -1.3351584149532163 -0.8809425100333607
H 3.599121913407532 -0.8005502952078959 0.8335181797134995
H 4.2319020791391155 0.31687582243213586 -0.41351282667831324
