21

C 5.415056166950282 -0.3440198974501964 -0.027434256320167553
C 4.293151435656895 0.6254160820325488 -0.11927597207581533
C 3.1037982322302873 0.22495429588704097 -0.5212010000100746
C 1.8419227010926378 -0.04816769307398165 -0.5037385627540821
C 0.5414476086517419 -0.11167085411099213 -0.2705789575101764
C -0.15100058406573685 -1.1434434204422064 0.5240977868254952
C -1.4208079672970149 -0.8242890110378791 0.49569125027188077
C -1.6371520711918195 0.3995593567675583 -0.2948985359166928
C -2.954344213867489 0.9970676303024499 -0.503357034656831
C -4.049101464852979 0.468502989012544 0.012161621966914319
C -4.611885171520389 -0.6082612993164908 0.8180477935035502
C -5.4391051178757355 0.3367640909918575 0.30432895879119287
C -0.46960148845764665 0.8202618797794945 -0.7486127019662511
H 6.191911326445995 0.1263419923618975 0.6415175471744972
H 5.0736528799857155 -1.2907669906683645 0.421018054411601
H 5.9140539471680365 -0.478409188668426 -1.0085188516892714
H 0.3549665552649556 -1.9763113114282613 1.0095664471152113
H -2.1920565163430323 -1.3981932240944492 0.9942836055386604
H -3.0615257682179293 1.9044884208856008 -1.0973125842844567
H -6.468684884323294 0.6340101172394154 0.25547299093006215
H -0.2746956054333103 1.6861660350308958 -1.358963102207018
