41

C -3.833723677122123 -2.445388713769954 -1.1952105596580915
C -2.6397268680979193 -2.993638359267996 -0.509289743176886
C -1.9096515726395167 -2.1404580517332503 0.2104317675519893
C -0.7648800681221466 -2.7590542650966934 0.8447950902086528
C 0.40436715145836727 -2.193978677425942 1.1077388391688563
C 0.8528002868003172 -0.8137014132702 0.8340595728737363
C 2.1517450722769604 -0.6158514947229206 0.9903793130797478
C 3.013386673175414 -1.7490031861018795 1.4086793907599489
C 2.778306099699175 0.7154992330700026 0.7648432183804482
C 3.7203510039242107 0.6063436093086343 -0.40711093698818374
C 4.399406876803137 1.9301356467509496 -0.703938502727043
C -0.007127447962409767 0.2577820602649259 0.4310414510231783
C 0.159731963517113 0.8936865029631191 -0.8528472729607703
C -0.9237787857910137 1.652352959592446 -1.0382534679906648
C -1.8175586586243333 1.5374224742420688 0.09889743422966123
C -2.757139159105641 2.3583153882364836 0.44723460088561084
C -3.0653512201499202 3.597554021203977 -0.31100294079974117
C -1.4351267653236852 0.27050629962262845 0.796050791753727
C -2.3405104515133406 -0.7587881289605036 0.2669466083536944
H -4.50207226266016 -3.28729085560494 -1.49400088838864
H -4.366283735332497 -1.734375528168763 -0.5131577104788887
H -3.4803414460557054 -1.8677349386927982 -2.0670146518900814
H -0.8823142084018372 -3.814138502655096 1.1390191446259277
H 1.1124746451899732 -2.857716773232875 1.5963666865586261
H 2.864707235934844 -2.586738853001185 0.6763111913709172
H 2.7936605604547005 -2.143564553837218 2.3993460185788615
H 4.084972202823856 -1.4266720745818788 1.3888936427256424
H 2.057738620039104 1.5186803372848103 0.5467733907116883
H 3.257004412147985 0.2242853085859956 -1.3268519906625762
H 4.558129621362908 -0.11608797756342268 -0.17713049013518062
H 5.342924646216655 1.7125504141511647 -1.2370698234505388
H 4.52554714529254 2.540585518282052 0.20316121076483543
H 3.744250001742541 2.450571540513125 -1.4565237931383184
H 0.9530902950866507 0.825982953954985 -1.5682458081813075
H -1.0608679090455797 2.257559684059011 -1.948552405868886
H -4.013432735086942 3.534607742854569 -0.862329038845735
H -3.135120757466758 4.418570645957675 0.45457226278348334
H -2.2379263797531386 3.832800674887578 -1.0071160156875887
H -1.570333135133262 0.4090849254297942 1.8780201059351984
H -2.7675308105763277 -0.4983338849815275 -0.7431454315699242
H -3.2637964599814966 -0.7423617085466409 0.9265620076782997
