12

C 1.5079876472023548 -0.4170036940629073 0.02985140666861244
C 0.014980826038649663 -0.7470860695630016 0.12068559094862973
C -0.6633096327526907 0.06775732308004997 1.0993443551485726
C -1.3510298744706608 0.6957724400180183 0.20376926650080332
C -0.7580993389788776 -0.04176595450391784 -0.8921392407945726
H 2.040431630454933 -1.3733571330756502 0.11416936289557326
H 1.8048069731904632 0.3053543347056368 0.7928359301127794
H 1.7174810671170753 0.037942803725480714 -0.9584402601699336
H -0.5898566927329242 0.10792439422163887 2.2165924228134584
H -2.1122623375705496 1.5065060512034865 0.31371153115187567
H -1.444214874994351 -0.7428855236969079 -1.4397287345095573
H -0.16691539250342813 0.60084102794808 -1.6006516307662415
