18

C -2.1943013607287654 -1.016526183844609 0.03901558071030105
C -2.7660509633499317 0.2424903005166201 -0.48756258757305093
C -2.2233710943375007 0.9202073305893276 -1.4906103037496667
C -1.0110767951640318 0.3699539674368054 -2.0747903853619833
C 0.11135144927989875 0.4899251710283691 -1.388917845893393
C 1.039843768772412 0.76636707427287 -0.483925806189741
C 1.2306780117351426 -0.22016358081704712 0.5829608169019804
C 2.582714429704866 0.04284451371031798 1.2131545926233014
H -3.006592219266564 -1.793135660011552 0.03770385278322805
H -1.895687832867683 -0.9048252119756799 1.1212867404688627
H -1.3125103853939881 -1.3247855107698865 -0.5194550328880378
H -2.657911117636574 1.8208914786730244 -1.8457358238858548
H 1.6019788078962938 1.6569321770973218 -0.5409092207180782
H 0.4774425873884345 -0.14860554980500532 1.3990952444738622
H 1.2409875942768944 -1.2659525975402635 0.21698598181733034
H 2.7926920361607968 1.1398781971285261 1.2728147291470038
H 3.394295410019977 -0.4453871795974972 0.6742876077286428
H 2.59551767350991 -0.3301087360933342 2.27460185960568
