16

C 2.571465511968831 -0.646768064177165 0.11738023846494065
C 2.2253597624626575 0.7633835806415864 -0.1301638615725138
C 0.9935907804407867 1.1612534718932026 -0.4384950730360962
C -0.05782225697778809 0.13613887800429417 -0.5325556646947951
C -1.3927463342749553 0.5875062064920749 -0.01978215869959077
C -2.3555148989164882 -0.5771102138281203 -0.18768416874986898
H 3.416538724412236 -0.9813124308979438 -0.5184557702720376
H 2.9493179041507167 -0.7181846530363774 1.1735325997796469
H 1.7011428859003863 -1.3161988808936707 -0.03457168462018305
H 0.8493723745853502 2.2197523171554407 -0.599983379641988
H -0.0838633647310099 -0.4208222675106353 -1.4649812466717518
H -1.2813002405742797 0.8170489876922277 1.0564376399834472
H -1.8078973953526873 1.4569924879128948 -0.5294663351457107
H -3.2799724819959213 -0.3044733836177852 0.35263120032526696
H -1.9021394813313661 -1.4751895000555855 0.2536128398164958
H -2.545531489766761 -0.7020165357746128 -1.2880764687789397
