19

C 4.666786530437094 -0.5136101978635473 -0.08465939959761297
C 3.593892685729888 -1.0361765596963033 -0.970971294952998
C 2.3842866845885813 -0.5022617507790512 -1.0300798581269273
C 2.1159091178546143 0.6413516964659549 -0.18503265743332
C 0.9025455908659547 0.9509731916655836 0.20703823092030954
C -0.35390389628213126 1.0814792569232197 0.5191398156236142
C -1.3221912085181795 1.2709722785972037 -0.5062729348439128
C -2.5686569851930083 1.0078343492848911 -0.18338791729133394
C -3.7641444119048266 0.6118215672178756 0.20512007875243468
C -4.072344201705082 -0.7966634942379739 0.0019474023308515018
H 4.640302520535829 -1.018674830377272 0.9013552290215177
H 5.640274521510853 -0.7125295094062115 -0.539946762944157
H 4.531762793221395 0.5886539697299425 0.021527597751207335
H 1.6778048115007684 -0.9478639465077832 -1.6986958753646406
H -1.2158656566758108 1.5918170819864415 -1.5050423693757238
H -4.3416503579892005 1.3916585512039696 0.6197101031910193
H -4.921408376550542 -1.170074107477353 0.6148962025726327
H -3.2159381865998116 -1.4795991347507218 0.2118265604427883
H -4.377461974826505 -0.9591084119787688 -1.0690437240064932
