27

C 2.539035448034182 -0.9287795330593243 0.8770717233247531
C 1.786679743879182 0.28085641549728435 0.46111748498993543
C 2.5572802005832784 1.2612305172824676 -0.35498956231921186
C 0.5192401998452403 -0.030534666361635522 -0.2690449901671991
C 0.5359900191296332 -0.9512430560492109 -1.2049952439574219
C -0.6964778933760415 -1.2416053954204105 -1.902282515726424
C -1.8192988754311676 -0.6135626226074232 -1.624904667847236
C -1.9212182345213604 0.42660344241528886 -0.5944759091316547
C -3.0854830642619775 0.1752728513697999 0.3036478442701681
C -0.6700621291139073 0.7430804404030742 0.13553338251382052
C -0.8364894093780142 0.5909370519807947 1.6320705682761565
H 2.3171134202934716 -1.104821810376301 1.9705264897289974
H 3.6353267117543573 -0.7302540475073869 0.8471962039766396
H 2.2879697263842864 -1.8540640420682435 0.36508103417114457
H 2.5899841501007925 0.9487222384768185 -1.4361105499484017
H 1.972500187832301 2.2241230119927975 -0.3525529912768017
H 3.5672145767689214 1.4764261983375633 0.03753933826809809
H 1.4315688729855196 -1.4720643111813745 -1.446579725236095
H -0.6672666021781147 -2.0026079727449964 -2.6708825826107883
H -2.6921585482606583 -0.913950439561862 -2.215604458073803
H -3.122067259229667 0.8102566986267422 1.1907722967913152
H -4.018479996026062 0.32580094771380197 -0.3083001717612348
H -3.0960476235346146 -0.915098718391322 0.557352513776001
H -0.45347879371583233 1.837467220181012 -0.04739826418632584
H -1.5046190776231791 -0.25544014423403905 1.8481685778865045
H -1.2998911872846362 1.4980500742127287 2.083165599929263
H 0.14313543634410014 0.4151996510733273 2.1188785743398144
