29

C 4.795642794745434 0.16956727151665663 -0.13068958682880616
C 3.6730845213827337 0.7219920739585172 0.6451955136285357
C 2.4269331468938296 0.3157661151671398 0.3824955025797015
C 2.243756769447366 -0.6704815038540055 -0.6776679535606673
C 1.371073746413959 0.8785656125450014 1.1599322267001206
C 0.10038470811290523 0.6401293984753096 1.0858683830273805
C -0.6574014114920634 -0.22773226524019277 0.24159478932517717
C -1.997126663100837 -0.2866881614686222 0.3756538023924191
C -2.6300340230042343 0.5593545347823696 1.4024961211933622
C -3.5472436050925036 1.6007576678201352 0.845076298105296
C -2.802333009826979 -1.158430237437149 -0.4658740457508021
C -2.1074547295213124 -1.5759509005067565 -1.7411491868581992
H 4.926464671553016 -0.9184696555316791 0.011071275093175313
H 4.69191309416841 0.48129150928305275 -1.1858196855193097
H 5.774167594758731 0.6141859711092174 0.20968724824706858
H 3.255099686001095 -0.9425404602564028 -1.1284261080371907
H 1.866558817015696 -1.64533925470315 -0.31004051948814604
H 1.680430403150579 -0.24710528569453719 -1.5399841108846846
H 1.6858497824716268 1.6390025630964777 1.9515965533315855
H -0.5262601225170219 1.2307312509585746 1.8301856591849366
H -0.2303958823436965 -0.8531988893286387 -0.5114468588570111
H -3.0404357055545144 0.018679299746327187 2.2546581577267495
H -3.0012262936694905 2.507682873299753 0.5103094046665558
H -4.29002628657242 1.8662211556440944 1.6209390547369258
H -4.11292961484097 1.1533128391647665 -0.016821113028388124
H -3.8266426684888257 -0.7648014002860175 -0.6596867861095154
H -1.465901220535274 -0.7760571100757881 -2.155938831401185
H -1.4400287065862687 -2.4208129901066937 -1.4934726368244406
H -2.8159197929714277 -1.9096320220781546 -2.5097425667916005
