18

C 3.1291189054958943 -0.5451819513082025 -0.21937101358959107
C 1.9697650930304818 0.050942487176340825 0.4530213576024861
C 0.707408921404601 -0.21504278209585423 0.21177781418349798
C -0.3189096832764016 0.5105009241627575 1.0174633766252645
C -1.0611759224484205 1.5665103144282053 0.2786509271194049
C -1.7683086324275095 0.33843957093706023 0.6829354748486528
C -2.0949757444129387 -0.7540101271423523 -0.28361425617508595
H 2.7849741610351653 -1.4599207315817895 -0.7461765165337176
H 3.823270653021193 -0.9206364465148603 0.587265484552064
H 3.6813910950783195 0.14887805018183262 -0.872633417858664
H 0.4017853580340273 -0.9307784048212766 -0.5394761958332861
H -0.09850373632523259 0.6373487770755947 2.097474956890458
H -1.3503262466774406 2.514290716618397 0.8123145212975369
H -0.7944219394824755 1.769596357592456 -0.7807975306340125
H -2.509861035283589 0.4224857682018901 1.5270767573420925
H -3.150038269579621 -1.102977451866671 -0.17158796818305383
H -1.8867833546163977 -0.37306908736137534 -1.3086357287390307
H -1.4644096225696437 -1.6573759836821689 -0.15111573481932872
