19

C -2.876656583294145 0.4581189749956995 0.3781842070872194
C -1.6526317584869799 0.2633075220374562 -0.4539287426554249
C -1.342910557579494 -0.9679935178284672 -1.1758725520088813
C -0.554158025720525 -0.6102608217382218 0.04937876266188641
C 0.814696725915616 -0.046565007866773846 -0.09246991581162428
C 1.174616669396293 1.1174801490777715 -0.6025891007285012
C 2.649585571680354 1.2987455004584598 -0.5570824029528145
C 3.0926269762385488 0.03785784105460652 0.06880524309984994
C 2.0451214085645644 -0.7087881498923232 0.32409855580762587
H -3.1282893497638202 -0.3823721012514737 1.029192534873053
H -2.679239718789059 1.3454646373384676 1.0482380944215197
H -3.7706260283640667 0.7542809429073015 -0.2207559944218288
H -1.998102630910685 -1.8635027829561188 -1.173370558238065
H -0.8511956564219981 -0.8281645167235686 -2.181612911120252
H -0.7631453375200007 -1.285035876202792 0.9182998199889496
H 0.5057927336885195 1.8515022882662338 -1.0031274338144747
H 3.0907212259761985 1.431237071727556 -1.5490769508758215
H 4.140391789819139 -0.18112251309262814 0.2630100486419514
H 2.1034025455715373 -1.6841896403111332 0.7832306611795538
