16

C -3.7271146106535573 0.028645029453732467 -0.45316481578205
C -2.473739205413145 0.7708635979673228 -0.6937400921496742
C -1.2945410121281515 0.24455678439095524 -0.44412862137138026
C -0.26416678432696283 -0.19888850152110885 0.210722387733572
C 0.8323451181247014 -0.40785715468636824 0.8772758665603384
C 2.077955156160332 -0.6848265308122194 0.09532100503812464
C 2.7834992266054224 0.6593665864338119 -0.05003021203668643
H -4.140933592281099 -0.3381480611845688 -1.4138854516253139
H -4.518345302606648 0.6614864531860868 0.01952482996784699
H -3.5138542866404765 -0.802369474798342 0.2637397032631713
H 0.8998824336212259 -0.39399533933565883 1.9567734944078414
H 1.8535805124606959 -1.141237051673138 -0.8900330388523936
H 2.7381365915980287 -1.3166029465833902 0.7202725287124891
H 3.06386471433113 0.9596468180757056 0.9880441324077389
H 3.666837449233183 0.5905998116712984 -0.7191215204407242
H 2.0165935919152718 1.368759979415912 -0.4052892195613719
