18

C -3.3231602664704134 -1.0553711286079952 -1.7805393853684603
C -2.727158459279255 0.30602512854233777 -1.7564880492806911
C -1.8041808830218284 0.6509576465444539 -0.8450049812803699
C -1.3967386777811894 -0.31894136673357026 0.11359334931608969
C -0.5253851624975 0.09372606442203345 1.0029416647856153
C 0.37703893907885494 0.5507572600524637 1.8207113529974885
C 1.7238788203895428 0.4055965267549169 1.4019549770530277
C 2.8901934366485356 0.2926895566634552 1.0576566633055242
C 4.296976849757639 0.1678926229845301 0.6659354914226022
H -2.6322555611020184 -1.7007555239264531 -2.3686565669223736
H -4.307958032385263 -0.9751691566771646 -2.2991391996167425
H -3.4653344169457982 -1.475193063423224 -0.7563249163965219
H -1.4455257459267397 1.661603134296944 -0.9252847521618134
H -1.6840618771572127 -1.3239524886093146 0.22243346486258606
H 0.005897217919973032 0.9798766254751389 2.704452765444335
H 4.477687764149103 0.5056185184407751 -0.3734073131587921
H 4.901227277335718 0.7672004776498988 1.4014897893478313
H 4.638858777042684 -0.895306588392543 0.7136756456020175
