22

C 3.7478651169163677 -0.5635468013656376 0.30474387923921975
C 2.431484517578103 0.12059830540899785 0.4084769500134967
C 1.3375867644396027 -0.5910522757985877 0.16993735253482525
C -0.028205007073751336 0.048037954537915886 0.2596215153910182
C 0.16861237954035355 1.5214301866539746 -0.03582543809905159
C -0.8929723183050237 -0.6332897837770963 -0.7461057767169512
C -2.295848707283102 -0.12015691328996234 -0.7941752203117914
C -3.0299360737322627 -0.2676217327370939 0.5067067404120428
H 3.8422543327547634 -1.1173713282688085 -0.6460600938949702
H 3.80621871831456 -1.24661367469149 1.1982813459844333
H 4.559039775920671 0.18004228015789459 0.4077839429778727
H 1.3932827798108327 -1.6427974162788215 -0.09391194721350735
H -0.4056277723652583 -0.15321705381995313 1.261947791570478
H 1.1984039590042588 1.826934982222256 0.2704501256890234
H -0.5363751420909666 2.169844355521285 0.5005362294208716
H 0.11591520296037866 1.687309340089888 -1.1269247442107382
H -0.45473065671144425 -0.5607870010480516 -1.7546391943546535
H -2.354513624073542 0.9348100646075168 -1.1451119528037543
H -2.8449230714693607 -0.7251175671535594 -1.5552933301224106
H -4.134362935414272 -0.3724042697883892 0.3398993611528772
H -2.9097957839061386 0.6347083044283497 1.1706886807562664
H -2.713372454814454 -1.129739955610782 1.098973782585755
