23

C -2.427872401461575 -1.1358853554768835 -0.6817285968337768
C -1.482688068378087 -0.297319488085729 0.10161162443371254
C -2.0873967509706706 0.9633990060906292 0.6160443476757034
C -1.1416088550549215 1.8953964747111358 0.6986383337220912
C 0.16186667580276334 1.3485498415175832 0.252864858616891
C 0.8489601644946948 0.5488871987134634 1.3333442600554035
C 1.4694872450634267 -0.6598978411461062 0.6307298586306532
C 2.9595704195682635 -0.35887651614986504 0.5076153007208682
C 0.8443286776721407 -0.7114590980939414 -0.7389975175268803
C -0.31645724734754355 0.2238766781181372 -0.6772241751309266
H -2.4570568559295825 -2.1529282713559117 -0.19417723522073216
H -3.4356322510185113 -0.7202501345388335 -0.6406126580578121
H -2.06287097627795 -1.3268026290511785 -1.7171222286486172
H -3.13484257740025 1.0827526742204312 0.876440765880077
H -1.2792258357579007 2.910865605655001 1.0383580851162517
H 0.8040500498061095 2.0631245288128173 -0.255423310705806
H 1.3436792132195898 -1.58427573292327 1.205063275307672
H 3.4319869657421744 -0.9692246818953291 -0.2833309714415548
H 3.0114380289793043 0.7396830868988893 0.2571110484562644
H 3.4401436345609073 -0.48570225041489273 1.4831180515265985
H 1.5694633102372484 -0.3059185849874382 -1.4749211237420468
H 0.5243874147881546 -1.7496372216283704 -1.0041436769114385
H -0.58370998033763 0.6816427110096829 -1.6387960364180165
