24

C 5.988875625408719 -0.006052867204679312 -0.6401713185767587
C 5.1368165247507775 -0.9316994613173266 0.18671282067639483
C 3.925428740748426 -0.5386162655621815 0.5479621055715255
C 2.820660209712385 0.16534475416056696 0.7536250069838927
C 1.8273702685137285 0.128085446018173 -0.2712705354378693
C 0.6047367122905395 -0.1797619734180789 0.11487094189564506
C -0.5930322799826578 -0.405704702240327 0.618785827592825
C -1.312933200387748 0.7498999066450577 1.0402068327096203
C -2.4781201744256878 0.9495544786536074 0.45320247372055195
C -3.654310084451674 1.0067114700547344 -0.10035951144360497
C -4.737498483414605 0.29877281057870264 0.5855476633389196
C -4.833526487324477 -1.0987464552334218 -0.011355510856102636
H 5.598741885744996 0.06839753596836436 -1.6772266023028262
H 7.015206442879819 -0.3794841806968224 -0.619543103131916
H 5.89419405942934 1.0172163190213652 -0.1743052154134404
H 2.7977204059284904 0.6986429676175202 1.6889250886255356
H 1.9002104805112066 0.30915849813389695 -1.3095841455422326
H -0.8485279388008025 -1.4291854310916696 0.6379858422952921
H -1.0767918007795858 1.4911869923803418 1.7547226058251018
H -3.6828927388535835 1.5723302105756372 -1.0037684045911481
H -5.72411295133428 0.8098110181359032 0.49636980760593113
H -3.854206431386058 -1.5881500561915214 0.10240054184576737
H -5.655660810138095 -1.6546967133121675 0.4876252323714797
H -5.05834797463724 -1.0530143016787534 -1.106366245233037
