23

C 5.342464479892234 0.08135581943717644 1.3084196299971866
C 4.168835259786814 -0.3612155603212741 0.5564290357579398
C 3.7054544458246106 0.17247827149941655 -0.5346504368502468
C 2.5405966701961806 -0.33462569890840516 -1.2049571904145369
C 1.5224943617601603 -0.645455555405015 -0.43791374817240314
C 0.5224598111501192 -0.8291594870260801 0.4001886618229281
C -0.3126255053221655 0.3056085845603269 0.6324452397370571
C -1.5704321886297168 0.23244768932881935 0.2446232286736911
C -2.7969830680394283 0.21854551372494457 -0.11958380899593087
C -4.061607539950334 0.08884277728045667 -0.4070208557547774
C -5.219481271995637 -0.12308109648875476 -1.306685047840783
C -5.511274574416262 0.06610583082023508 0.12384471771540292
H 5.854968491298638 -0.744231702788283 1.8492367443308717
H 6.087592637020427 0.6261229164786161 0.6741217058211002
H 5.0248195009027725 0.811988152866162 2.0848330535206014
H 4.20867340010063 1.0298878891269552 -0.9606833592206087
H 2.3753547084704203 -0.49617218650700623 -2.2311415412918087
H 0.4860259196695991 -1.8089489806101517 0.7854261372879532
H 0.05070140244168919 1.1905432676884091 1.1019658445703695
H -5.421021838398085 0.6907672796695088 -2.0068597225712734
H -5.385702423541594 -1.151054979762486 -1.7140131254638262
H -5.859174344523794 1.066932831457881 0.43468165285205945
H -5.752138333697176 -0.8255485121287831 0.7272931844891273
