29

C -3.770096983470014 -0.9686129731612717 0.16310546436951817
C -2.281733441793991 -0.8018791397073123 0.060233515200580255
C -1.7126849645027367 -1.4737960678945956 -1.1339117211290421
C -0.4148253785257703 -1.27920446463413 -1.3275299830418872
C 0.31960366143279484 -0.4472113194852482 -0.3796338708636137
C 1.618233448986048 -0.6721410579397729 -0.12069852838672633
C 2.3504993734222546 0.17873988377674707 0.8422400500693397
C 3.5515865855201767 -0.5419448820485807 1.3293135222383936
C 4.660425444686273 0.10932906035684037 1.0398126692322853
C 4.269774131917935 1.3158867116120534 0.3356060414504605
C 2.9555010972938986 1.3654487962451185 0.2175420962518486
C -0.35963373236439317 0.6735502665755692 0.3230541797817208
C -1.8398350612096117 0.6258527863086073 0.03685738058911628
C -2.6491571082224112 1.4164645309976467 1.0372151877080011
H -4.3388914339349585 -0.38027722266918934 -0.5792298541547706
H -4.0610282266456705 -0.7072700009982394 1.2011342312364452
H -3.9779493324296027 -2.0653264404001 0.06379877288710213
H -2.289014335674321 -2.084468041119306 -1.8158888431333415
H 0.12283032665104977 -1.7080011516721232 -2.153936884685386
H 2.1489902537394108 -1.4764427583224073 -0.6100892535290112
H 3.515920655107892 -1.4794597493966735 1.8531852025846751
H 5.673378048715617 -0.19360908218118053 1.2794337538400329
H 5.007981570520308 2.0472039898277696 -0.02428842040278865
H 2.423630243557871 2.1625201845994835 -0.26646088688824454
H -0.22388958577883541 0.4874729253510062 1.409714047502658
H -1.9918405744523369 1.1006868251871524 -0.9691689990052238
H -2.253290352538955 2.4182454502281656 1.2131716053411101
H -3.662919174626678 1.5625987597223223 0.5635556065686613
H -2.7915651553813277 0.815644180841592 1.9382122759471272
