12

C 2.453747246937197 0.2823182617680709 -0.1795186949959047
C 1.546667274359337 -0.8134366814145542 -0.5195724718027205
C 0.2688783504721964 -0.5863377136920878 -0.36697225317399995
C -0.9736879390498355 -0.382069590842781 -0.044360906724581047
C -2.278788450641419 -0.042458959136166485 -0.5306398400601565
C -2.1453114715639505 -0.28604370246291305 0.9054828416730488
H 3.1478254729301534 -0.0942984503522362 0.6207825716197501
H 3.1133398617771317 0.46809796413317034 -1.0756736873806916
H 1.9691496253965106 1.2259246173141425 0.077652964530671
H -2.556223177895117 0.9326336362194986 -0.9514779437315917
H -2.566867724128561 -1.2363330382223972 1.2947695696491923
H -1.9787290685937788 0.5320036566882438 1.6503062151232144
