17

C 3.511088133969195 0.15539568006394255 0.2130817258915707
C 2.084678596439204 0.3030993789220493 0.5964627258070252
C 1.1151398557369734 -0.44646149094695986 0.03833984745080398
C -0.2540855791626275 -0.1543266812971269 0.5511864643543289
C -1.244463652718019 -1.1547722022977371 0.15578918412213266
C -2.48389375090013 -0.7846680533995808 -0.07464774167333134
C -2.8708232396244013 0.6347666633301282 0.06593215662546517
H 3.665088201722193 -0.03963623636331044 -0.854812032347214
H 4.011127590114157 1.1165053047155276 0.46284179957046534
H 3.9312385168185555 -0.6605118434714295 0.8687147555715344
H 1.325023696421655 -1.1951236518360644 -0.7182310173635577
H -0.5752578498782767 0.8453233888222597 0.20080039098862013
H -0.17792859255297364 -0.12305921523629483 1.6532972867467624
H -3.2321388580577066 -1.5026141067609304 -0.36718356269624397
H -3.9641782712186084 0.7858745823154499 0.009113929049449736
H -2.4803848880918347 0.9779839513974629 1.0681578461400785
H -2.360229909017429 1.242224532042635 -0.7323106365323188
