42

C 7.446439363245023 0.5844503289626912 -0.25658763760132924
C 6.0543973444322665 0.7555370716418901 0.21447077797951872
C 5.204477304968451 -0.25169309458889194 0.11543572911914979
C 3.788909449068485 -0.10324221514600525 0.5855745379696004
C 3.504330747506007 1.2766107841397414 1.0430468430157982
C 2.411981455416744 1.9572537174792717 0.8941770692419628
C 1.1450066822271923 1.5861769445939076 0.24025535792908878
C 1.1177885611142653 0.2913628103283435 -0.35684198576049203
C 1.8290976246973585 -0.2565116131186814 -1.5083236129256266
C 0.30434539558637946 -0.5815198230080986 0.22480722456982496
C -0.5758035940759071 -1.4039927229783165 0.7400062423446756
C -1.8793989344583844 -1.3353997513704656 0.15382413387742952
C -2.0497199862545243 -1.9623868023121536 -1.071603110894161
C -3.2396914480021404 -1.9849915643393814 -1.7606662956227195
C -4.316386220506278 -1.3356627304340833 -1.1741847340666927
C -4.1839660104331395 -0.7025438489958687 0.04167435721842447
C -2.961800943693199 -0.7078067832532615 0.6979338373631998
C -5.498848994870269 -0.10038992494129394 0.4131899890435001
C -5.414116078512572 1.4070492944428294 0.5148056070962885
C -6.369019381757262 -0.46879348981708524 -0.7263220781293388
C -5.698798322800836 -1.1646900282834747 -1.6183601662162872
H 8.081344207834979 0.23200233157063996 0.6046604048240933
H 7.459703404829681 -0.2180784826644743 -1.0215219006793865
H 7.879252832436351 1.5321934975226899 -0.645609939842785
H 5.4618368271675655 -1.22158895185046 -0.2979881439683851
H 3.654693318443598 -0.8048052967213131 1.4474779757393934
H 4.3534268428638665 1.7584682356569863 1.5759246800648419
H 2.436434255171301 2.9921536318005635 1.333007212793383
H 1.0236906289395993 2.348469545837237 -0.5997026945218032
H 0.3143147389276543 1.8250710924296076 0.9366228036643348
H 1.0712535105767562 -0.3294872054004257 -2.3618665657786297
H 2.157959718654962 -1.3180040430277726 -1.4010238561279424
H 2.6075366202695966 0.40803270591967883 -1.9489651387747284
H -0.18036639055170794 -1.990462345173933 1.5109329279326102
H -1.2179162802040546 -2.475011106975627 -1.544524176702274
H -3.391315987293149 -2.4671680844249213 -2.7143100214261913
H -2.8436754621536324 -0.21777107194218587 1.6475389215339684
H -5.904993977651109 -0.5185322352602174 1.3483357407340655
H -6.301012695704349 1.831537762533446 0.020186677869161052
H -5.372557875609506 1.6592832956833858 1.5973288446368468
H -4.480738369633315 1.7047071145980557 -0.008990021983628124
H -7.428093880212247 -0.2298269491120506 -0.8715304008335014
