14

C 2.0837490506159906 0.12194921534681592 -0.0010435554574693856
C 0.8478303745592973 0.3152919429623167 -0.7727377531895107
C -0.3686290632670148 0.07693027511355839 -0.2921397418008664
C -1.5986573545903702 0.2843720356824904 -1.103579728036714
C -0.5769866865757037 -0.41897144585888185 1.1067700424655973
H 2.5792982618105658 1.0989214298242034 0.27493918960769936
H 1.973682245566793 -0.5344164206149551 0.8808978344324598
H 2.809478752130356 -0.4167022448631503 -0.6778982015124427
H -1.3929276774725952 0.5205243202011828 -2.1561081730252143
H -2.1449905889127585 1.1376033213226318 -0.6115570474278479
H -2.2503826066623196 -0.5964680684696559 -0.9610937198389448
H -1.5518751958599328 -0.03290259720344221 1.5037054256625721
H -0.6165589207932876 -1.5228896389015734 1.0406436132863046
H 0.2069694094510128 -0.03324212454152811 1.7692018148343143
