27

C 5.462352497465327 0.3047151692051729 -0.010428862579444842
C 4.344296809971512 1.0585467607859438 -0.6586321551535709
C 3.121111207678728 0.5660746041238995 -0.5129170360439816
C 2.0692838105509095 -0.13080825203774946 -0.20681869515892723
C 1.415638122004875 0.06756606920679241 1.0687953119713198
C 0.14240585969053376 0.45046780684947113 1.048134713700578
C -0.586715752271001 0.6679513287369626 -0.238121642519865
C -1.738343096365161 -0.2668307154402646 -0.25451724988100666
C -3.01191778639033 0.07350991560309296 -0.3353472738994274
C -3.5507641423385685 1.482305843893673 -0.4272579906018858
C -3.807814881830726 -1.1697428470696944 -0.31943299943508313
C -2.8276944368557273 -2.2653943447167837 -0.2191925499766865
C -1.6258414427421946 -1.7146539364690778 -0.18269139417191874
H 6.355313834591596 0.48744146198147287 -0.6742016008977083
H 5.301882275622846 -0.7821231139366682 -0.021461622911917364
H 5.721620251363372 0.7154797479160178 0.9833332862761586
H 1.7014691649198537 -0.8475299068928507 -0.9028628894810775
H 1.9144517106807843 -0.0811192856470692 2.021080727649891
H -0.34992015816748123 0.59986201748434 1.9910272701765164
H -0.9273759589595698 1.702606887617182 -0.3577731159161693
H 0.08150404272349529 0.3950484978951668 -1.0825621866875
H -2.8680856634839484 2.175143450219969 0.09651162034359277
H -3.7124823334705837 1.7746090885860257 -1.4782229707463266
H -4.50744425647495 1.4884748488347683 0.1455746310780829
H -4.401086345000401 -1.1676514373114761 0.6267434040734434
H -3.028921260558012 -3.33074231309725 -0.18090991141224974
H -0.6869220723554591 -2.2532073463212003 -0.10998237036846395
