19

C 3.5616844163635903 0.07305543066230175 -0.5491122606056736
C 2.2322924123295356 -0.19859318371881066 -1.1581869351869047
C 1.228747620115833 -0.5125986747973486 -0.3806423383361269
C -0.1382852348813562 -0.800928326577844 -0.9048652429958094
C -1.098814854962351 -0.078516353017483 -0.02660273529379987
C -0.8600794047907896 0.6824246673766384 1.022569915838044
C -2.13915448993176 1.182293535391369 1.5693087121958447
C -3.1825833376000907 0.6035821113584746 0.6858638186123833
C -2.5365239254037726 -0.10889468331167218 -0.21020597503494995
H 4.304612765407795 0.06615709809207268 -1.3750311816554568
H 3.8376140493607838 -0.7865119153660894 0.11811679298383547
H 3.5528214519739576 1.0073509225241162 0.03015652227399587
H 1.3502405014055259 -0.5774595843323808 0.6939949650685651
H -0.35507693191292655 -1.8747522178947904 -0.8355565827572267
H -0.2725697738639136 -0.45523344309949476 -1.949517793014948
H 0.12107455383345025 0.890430474453989 1.400235326330271
H -2.2751668151079576 0.793438728401857 2.589365835480054
H -4.250579803919267 0.7513708494776628 0.7790282151997101
H -3.080253198416108 -0.6566154356226355 -1.0022871746234114
