16

C -2.8207664402063197 0.571432314826489 -0.4833447074576275
C -1.5697274983570815 0.24398509206528055 -1.276117230829118
C -0.7581308971698248 -0.7490063796487043 -0.4598727875744487
C 0.4640883606944014 -0.033045666968901585 -0.0024942352070849473
C 1.648084193455514 -0.4614009087898723 -0.34248920062953836
C 2.8535380799245194 0.27590778769476304 0.13037495470402577
H -2.9430385698828934 -0.1105250034557192 0.38751260833679246
H -2.71328867303433 1.5912562850942853 -0.08572564149225163
H -3.725648453474139 0.4854345708446428 -1.1307543120732098
H -0.5223434018554663 -1.5879981920338553 -1.1390667416601352
H -1.3163533205533382 -1.0771426172366259 0.4518657070770075
H 0.3243896607302923 0.8462364089244465 0.6160544177630413
H 1.7596804655418814 -1.3381538571729734 -0.9582981021796857
H 2.6233861809173455 1.3440612630377808 0.07322748868657487
H 3.7168993626877906 -0.023118158216195357 -0.47362027478295193
H 2.979230950581605 0.022077061035141756 1.2104307349356185
