17

C 2.8010443457169525 -0.08168535187829294 0.045665969893925254
C 1.9357083652594973 -1.2350832899369208 0.055091293304317904
C 0.6696485891508215 -1.402393207783542 0.10549127830116178
C -0.3780091699167711 -0.37829263240579875 0.17519079277245445
C -0.2166145294026433 0.9295330759512396 0.1997339773341395
C -1.5268462154229188 1.5582569334478733 0.27120799962381803
C -2.4778345514835234 0.6594967087441297 0.2904643618343823
C -1.8501061913530683 -0.6581697500094449 0.23175557807787414
H 2.7922808445528533 0.5336514573079028 0.9827923502165049
H 3.8653138339925905 -0.4798226378258915 0.005252500799592912
H 2.7198389128776843 0.5844344295004894 -0.8490419169140793
H 0.3380700528116161 -2.459004576854569 0.09430232706387
H 0.7584712427460074 1.449618605962413 0.17032377282449146
H -1.6703954009934778 2.641681330551044 0.30346705568164845
H -3.5445435940498182 0.8114047722917473 0.3399845838152063
H -2.168466700494346 -1.2836538382596476 -0.6233620239331544
H -2.0475598339914334 -1.1899720288027091 1.2016273538497875
