19

C -3.024059040695115 0.7659106196928586 -0.6173292144903799
C -3.0173449880386696 -0.5991731972057539 -0.06939144022056967
C -1.9894844035871082 -1.1691670643522516 0.514667145501021
C -0.6879171452091634 -0.49683724523477985 0.6970514337142
C 0.4367224187260572 -1.2166155281512865 0.09864903934760332
C 1.4081972455234086 -0.5065270347497569 -0.42071428582405235
C 2.360094528014261 0.31865639445604005 -0.7586667302438311
C 3.34686431953358 0.6836625601574644 0.2574284951509271
H -2.5108606596236136 0.7531386629283161 -1.6089369615745108
H -2.582289636595933 1.516942798941884 0.07374882286792038
H -4.068812245894783 1.0897498672280297 -0.8048714144160687
H -2.1063434878785325 -2.1835934897225004 0.8796173063052624
H -0.478061860825826 -0.28373698659808344 1.787956376308781
H -0.7805872081646603 0.5219389958061724 0.24553125762939873
H 0.5948419007286961 -2.2568095679585523 0.01844755221941865
H 2.3027457906797433 0.6388255351310913 -1.7617453355231878
H 2.8603319550893427 0.965281806237962 1.2348592679908192
H 3.8969516728102485 1.6161266687888043 -0.05877106197452743
H 4.039010845408022 -0.15777379539561584 0.453468359092668
