24

C -4.05573045677803 1.2558069627049189 0.22747406364740239
C -3.1804980686988356 0.09806021684453865 -0.014606207823065752
C -1.8999507552907626 0.27197297119753117 -0.19347717363055433
C -1.03481806194235 -0.8713399673031946 -0.432663477277067
C -1.37450870411361 -2.137839561289814 -0.4997475132731282
C -0.1860728791398461 -2.9388988190292307 -0.7561018530176189
C 0.8877922745034864 -2.170384728482936 -0.847687141408702
C 0.4235503210442255 -0.7887737870739809 -0.6472423490906957
C 1.0318135305989826 -0.18180319039979703 0.5335233218859277
C 1.7794731611605545 0.8741959137970237 0.3156395203557639
C 2.603292992018604 1.853121761575557 -0.020377101291471925
C 3.970529640741016 1.4645816437797488 -0.32399411416836593
H -4.9371612745420554 1.2648069739781773 -0.47405216179462023
H -3.5228541293217903 2.232359733665782 0.16214968828984513
H -4.433965588874398 1.1967633803254634 1.281391540026178
H -1.4854588495736052 1.2808736994556822 -0.16197150895946066
H -2.4059134166574365 -2.511674268737561 -0.3776093077567953
H -0.20576792200157962 -4.033788401762115 -0.8558427655950971
H 1.8757668291674099 -2.53356860317377 -1.0323946073244066
H 0.9719459063524468 -0.45445456904995973 1.550479106693392
H 2.1311870410942713 2.7967319345816417 -0.0189823380420557
H 4.517464876119414 1.2899466941463265 0.6215092134996556
H 4.024837585284577 0.5146823416383132 -0.9325870320191829
H 4.505045948849537 2.2286216686115674 -0.9623352102385107
