19

C -2.2920675005183386 -0.2929533402413099 -0.3231908752147363
C -0.8341742928110055 -0.034433467906054664 -0.4443720408817706
C 0.03594127104785126 -1.2233354934099692 -0.30310494966186585
C 1.434559023229824 -0.9646594134611317 0.10356752885751745
C 1.963312214558376 0.39315160807575245 -0.1300084131178871
C 0.992033827748879 1.502572249737903 -0.1506869651400952
C -0.32712059500204366 1.0509482386241422 0.4790020658151822
H -2.8138487812966995 0.7015802672045247 -0.34063992692538286
H -2.61184884184385 -0.8740009519086235 -1.2245300869034785
H -2.566031227929046 -0.879530097373027 0.5835931332716361
H -0.4335438263056929 -1.8977026629989944 0.4728106235598633
H -0.03738149097555988 -1.8221235080893567 -1.252659304336292
H 1.6206074258950376 -1.2845001619230991 1.17203324029343
H 2.0838842511197533 -1.6738683276794306 -0.4939776725342572
H 2.732336285307937 0.6112206893128544 0.6677123508673478
H 0.7550534548988055 1.7387503747201907 -1.226479251582159
H 1.3551119522760349 2.446576043567771 0.30293745826090096
H -1.02796836069469 1.872824098226395 0.6248875794808275
H -0.0288547887055396 0.6294838555214498 1.4831055058912161
