16

C 2.941213757252588 0.2783712241567608 -0.7134746692641153
C 1.8348703763404335 -0.2844550953288275 0.09064863952590699
C 0.5510749407071044 -0.02260393155125782 -0.13203345153476667
C -0.43685292492601946 -0.6582892198656042 0.7541895458290442
C -1.7717413667106956 -0.8828735986049339 0.07824420174128857
C -2.3948625201418876 0.4118327645481343 -0.3945746211222206
H 3.410799740140276 -0.4699657696665292 -1.3898857819742478
H 3.717889533448329 0.639474170257545 0.020509985896230487
H 2.61142232836376 1.1475522603574821 -1.3251784077086437
H 0.3061579216564374 0.6419991902797857 -0.9509447911109976
H -0.05698775860468054 -1.6609698107033268 1.0406695777561363
H -0.5502285469707802 0.006540369867440401 1.6507871082260481
H -2.4494290660292912 -1.2864700662626862 0.8593053273310296
H -1.8807752554513517 0.8665846258636828 -1.2395100952627758
H -3.449482405110903 0.14885367573539857 -0.6931576214108675
H -2.383068753963359 1.1244192109168814 0.4552378477556461
