19

C 3.7907902251019854 0.4422337955482529 -0.11404619623977048
C 2.5668183247577314 -0.09368830901466917 -0.7618008683722018
C 1.5074428773833524 -0.5296632518303992 -0.08961748989263155
C 0.346202488316707 -1.0410408041162855 -0.8333839323498289
C -0.9241567935795988 -0.4254402291021434 -0.34346658357415355
C -1.9001288090441224 -0.07799232396668858 -1.1435419282442614
C -2.990445820012656 0.49137657883004954 -0.3385675591457329
C -2.506097165678353 0.42449261923080345 1.0478611641998505
C -1.3079386026914228 -0.10979457269729281 1.0200858886428175
H 3.892739214676043 1.5476724115099398 -0.2561777717903266
H 4.657144873757775 -0.06491005186583171 -0.5962657995156305
H 3.7759893234919804 0.24511019382014831 0.9842704556532162
H 1.5381426802846072 -0.492092623993573 0.9937995044763536
H 0.32104090650279626 -2.1504743249139704 -0.7050622907092685
H -1.9538216921797864 -0.17121387107032607 -2.2406350864190974
H -3.0751547027951087 1.5618940475782848 -0.6514291395705855
H -3.9554966434258922 -0.04547673603705449 -0.48046372600435955
H -3.08148953528719 0.7722603025001236 1.9158719615447597
H -0.7015811495787687 -0.2832528504093747 1.9147733914082223
