27

C -3.2460788457561427 -1.5606073433080017 -0.1723944728117447
C -2.9362045390536182 -0.14043456473043622 -0.5037849675345119
C -4.102558927174349 0.701576445487194 -0.14793994489756854
C -3.704966411488162 1.6179713416414085 0.7118432274267044
C -2.3014099475943275 1.441181881807539 0.9655512425433633
C -1.8132880007551644 0.42312569919939513 0.2739428844720098
C -0.40316551331461253 -0.0012464669087455138 0.32778409407424164
C 0.29459671921406944 0.05699821300605335 -1.0004304946834257
C 1.687747134373233 -0.3895642150168104 -0.8090836323696899
C 2.6337930124991256 0.4732296400859787 -0.5164857677946676
C 4.020408760957184 0.0766954078143549 -0.31934660635286977
C 4.902449152602335 -0.9393727113458035 -0.30049669071130153
C 5.431726339106723 0.4173133003877676 -0.01488163385873073
H -2.430877968236277 -2.1035490179186103 0.3324048396074547
H -4.170878035779642 -1.6759725361594682 0.4421777580488295
H -3.469890226654944 -2.093375335093122 -1.1314170818744038
H -5.126961421444746 0.5885590590390416 -0.5304370842713557
H -4.359797594694154 2.3739569626135415 1.1425477072227084
H -1.735931487780003 2.086845565550864 1.6522037808172578
H -0.35138079217146906 -1.0680911825853865 0.6695247033979579
H 0.17340179216407506 0.6120637859470093 1.045352510171558
H -0.19827617271704281 -0.5002134153081286 -1.7978982555635081
H 1.927427212042489 -1.428593915210227 -0.9103863350394653
H 2.380251064986491 1.534927766474938 -0.41454309116714816
H 5.145482600032074 -1.9870777419006225 -0.4023996624010586
H 5.681845352611175 0.6762237773807971 1.038938382106777
H 6.072536744025315 0.8074295990493621 -0.8377798394688504
