14

C 2.5660722160243203 0.37258570656521206 -0.3389350521819834
C 1.3094539537146177 0.8615436410779206 0.2836348431558328
C 0.26688818762099503 0.06024416906812948 0.3184574267240699
C -0.3441963339929187 -1.2649675764819779 -0.0025736949882006295
C -1.1332425487221067 -0.23266613866335786 0.6778211092443209
C -2.2622047745094207 0.38320733604215523 -0.11507131822528838
H 2.837018164662794 1.1263785056761058 -1.1191103800828963
H 2.408302138961789 -0.6264577299568468 -0.8323582998200968
H 3.3846217184539746 0.27007432467152725 0.4146972129890622
H -0.024901738320816245 -2.162685944194904 0.5381600548161389
H -1.2917028158838046 -0.29198194199592464 1.7926790286999152
H -2.213283194874219 0.092565207451293 -1.170455305849388
H -2.2932118674101813 1.4835072885688414 0.0406435173020885
H -3.20961310572505 -0.07134684782818218 0.28741753223700744
