19

C -2.810871518434977 0.6136869755072092 0.12371161965876609
C -1.6022738229799762 0.08191595909241349 -0.5845923206458958
C -1.2834032935289095 -1.3021411118534973 -0.21384950601899308
C -0.08384102322851603 -1.7227808566645173 0.10840779265344155
C 1.0228513887639339 -0.7767158446265849 0.10676715459674972
C 2.322292420951259 -0.8596719235688128 0.3723440851411824
C 2.9756183507112666 0.4293714989021102 0.20767557659584596
C 2.0469177279612265 1.2901310533583075 -0.1617220517523602
C 0.7771551224600785 0.612050650674946 -0.25112278233422275
C -0.4613266082444908 0.9934304250661988 -0.5719785560724632
H -2.671304922602232 0.6543225209052425 1.2298387917481375
H -3.6753459171878364 -0.03890723008994003 -0.08758706763168614
H -3.049825164427311 1.6108677378674783 -0.29723406333508967
H -2.088311212441308 -2.0194889191560024 -0.20609102277178618
H 0.13180207333502653 -2.753794749140875 0.3804096661714733
H 2.816808808628169 -1.7631467880348253 0.668787875714598
H 4.0419466830458 0.5976950312645005 0.37263765862983705
H 2.2109944267331847 2.332172281066403 -0.36403397416191974
H -0.6198835195144983 2.0210032894301975 -0.8323688761856242
