46

C -5.856743291016544 3.18053291046572 -0.9674363504306865
C -6.167783720597482 1.7858567610638083 -0.6389177612373835
C -5.1979083566024356 0.872559149896909 -0.4640679979487475
C -5.480980728413877 -0.4288916868427557 -0.15775588995569026
C -4.416795366218265 -1.3183197505806123 0.007776977190912495
C -3.089437578149098 -0.9671239768398461 -0.1187274827576923
C -2.8574866936862806 0.3860836403906188 -0.43370095460185976
C -3.8952023799097133 1.2821750736770876 -0.6021413959218666
C -1.4719886266879199 0.8414814099420616 -0.5509261001268962
C -0.5057409206144474 -0.005631434533239806 -0.3666917380462245
C 1.0145070171445334 0.08628855136996048 -0.39440126597862396
C 1.3543946971323753 1.466503708195293 -0.111210567923405
C 2.4403623967824344 1.9301969234593668 -0.7096417167224978
C 3.571389103011413 2.2606410622688426 -1.2815976674643457
C 4.757449120626444 1.9835580412356488 -0.5113138441495162
C 5.4281509799283745 0.8612693172892011 -0.5454469491410742
C 6.601731367398538 0.6751168378510852 0.2595407143848651
C 7.266091837047577 -0.45492645627803435 0.21681242035496515
C 6.819589631484754 -1.5597567473764824 -0.6613376489949196
C 1.3039948944869268 -0.848044285064239 0.7483732402676785
C 0.2809945753787491 -1.7201940780438278 0.9125635314292063
C -0.7161350974813381 -1.409206922507957 -0.09922281859182289
C -2.084191741977634 -1.8252101738520317 0.04862417117830972
C -2.3787488802562864 -3.2534583118024085 0.39431827714273465
C -3.7792857993794473 -3.589179349114013 0.5183831240196618
C -4.741494605342237 -2.7122572854536156 0.344671038657435
H -6.788922072617328 3.771686711115505 -0.8488761903890831
H -5.44421313135982 3.270055966389247 -1.9881167847890124
H -5.1276245406556695 3.6073043804634044 -0.2496152471369618
H -6.488668790496399 -0.7861734621537668 -0.041273115661268824
H -3.6358816801544807 2.310848264997675 -0.845373554600485
H -1.2994617327281721 1.892538827312521 -0.7925929709631542
H 0.8908584193546878 2.1881901814004245 0.4958986593158114
H 3.466813460610725 2.6872384655567503 -2.236547067987656
H 5.11399355494909 2.77629891406773 0.14639235295410008
H 5.0857891520493785 0.07052620982129316 -1.1913561825719687
H 6.946787605187087 1.4569491181393566 0.9031506377879381
H 8.168311985980653 -0.6186632750700626 0.8256476833035902
H 5.85938862792915 -2.0057516403772406 -0.2781799917365436
H 7.546771649722083 -2.3751666462331276 -0.6851184395781016
H 6.63612933019067 -1.1829355767029532 -1.6893240813922121
H 2.1764543372080247 -0.8730585893890382 1.3824339377227035
H 0.2756082323184504 -2.500914984361563 1.6967400389134786
H -1.8067786990869994 -3.5620842411913225 1.2899600609085506
H -4.008911255965547 -4.642431037727756 0.7721326809811031
H -5.765176286544778 -3.0045205149624543 0.44661636439138486
