23

C 3.933616618942972 1.2498615216365885 -0.506213526089643
C 2.9067335922586133 0.19410484809667417 -0.6685394943356158
C 1.8140451623692861 0.21300082384792215 0.06284502408672259
C 0.8023702244068486 -0.8470627456870785 -0.11285005990637685
C -0.4904004178359124 -0.44635381667658613 0.5829311232140505
C -1.0132396662638326 0.8105378072683821 0.012849995369071462
C -2.5111944648886206 0.9638820667980476 0.12633125088820138
C -3.253232309300532 -0.23054401658068854 -0.3606697602108024
C -2.639104088955914 -1.4871474410438936 0.0640715813623995
C -1.3992371284111444 -1.6101535787127221 0.4920972469380721
H 4.1694429073146155 1.2983657206809622 0.5891413927873992
H 3.611424501937767 2.240365503595744 -0.8650781465908373
H 4.854531226488872 0.9367014523753077 -1.0660021719977828
H 1.6474441906673776 0.9864161667656686 0.7842695134960853
H 1.186074567494941 -1.7664779497524714 0.386480152728699
H 0.5872228157284725 -1.0483336170778736 -1.1812485474463315
H -0.3086547001088758 -0.2778680354416675 1.676783646558052
H -0.6460735356347187 1.0611347505237212 -0.9972116887018913
H -2.765617571015365 1.1529513851957385 1.1862648849946789
H -2.784768907492367 1.8401808688604042 -0.5153962954603909
H -3.412076869332489 -0.2013003126868775 -1.4454218647300325
H -3.254706676340366 -2.410000460732139 0.026601699684041535
H -1.0345994720298328 -2.6222609412532494 0.7909230653095453
