19

C 2.5540829732603565 0.2420142540331369 -2.8100447990153232
C 2.954719190102865 -0.31245407072559134 -1.4708301253901133
C 2.4140134531939896 0.25020253315668256 -0.4001672056957761
C 1.7306077353163563 0.9627912846025334 0.448936204311159
C 0.3814391883150395 0.540098194426251 0.7598244843198322
C 0.14165948380502671 -0.15684541961918103 1.856325293613682
C -1.2135341878593882 -0.5910155389357598 2.1846717555173836
C -2.2014701941374537 -0.28271488880498613 1.3779261560842575
C -3.6024580755474735 -0.6556842518415635 1.5903454532479127
H 1.5542371589688961 -0.09640924929306074 -3.0663227659268935
H 3.3326224587730273 -0.07543878130381569 -3.5495544742257947
H 2.6198963320019732 1.3487084298675953 -2.766175588407639
H 2.1968713325947866 1.8280944248294348 0.8737690065903598
H -0.4382817012689823 0.7813837826688945 0.11456086220830378
H 0.9581750209060462 -0.4010402772259178 2.5054350469118867
H -1.3815677953156291 -1.154497662233245 3.078607812620175
H -4.131610022393139 0.05279905887422666 2.253480924300632
H -3.7444642632559506 -1.6864569669933753 1.9469509759575752
H -4.124938084936144 -0.593534855958408 0.6019475472469628
