18

C 2.785302733246262 -0.5684034982503072 0.263553350547019
C 1.4069789868726308 -0.9599914512759072 -0.24730217223835751
C 0.5115799269816047 0.24431562838886225 -0.33202629961782626
C -0.8272518910697887 0.031785379498724425 0.33416532302239926
C -1.6171786446169412 -1.0884408435569597 -0.25118134081996524
C -1.5873382625724402 1.3473935926122884 0.19790254068067736
H 3.5561124802265915 -0.6916684402766415 -0.5252983399060125
H 2.8125479460685487 0.5308799193019768 0.5237624440709402
H 3.0938228292246936 -1.160571050819864 1.1383866495808084
H 1.011362586536022 1.0765090108449544 0.20632628063954392
H 0.3614660336633171 0.5944226800788553 -1.373058263722121
H -0.6419094311353252 -0.1815511444679567 1.417864217843608
H -2.6307834571847573 -0.7052927036635736 -0.5683331055142982
H -1.834435624305077 -1.884996183787275 0.5168224443429751
H -1.1785908706965829 -1.5465686400598295 -1.1416242983586298
H -0.8560145106865666 2.2061994576658503 0.2501082206995733
H -2.3146336410710133 1.4210086551983567 1.0184152358878256
H -2.0510371894811423 1.334969632568447 -0.8106331249425752
