27

C -5.293058996786495 -0.029472647832839413 -1.0265120766042164
C -5.0580769867881825 -0.38343463651536414 0.3872665867564614
C -3.809975840425766 -0.2923137928315877 0.8660981901254812
C -2.7465965521091578 0.14099761572584202 0.005453756546957092
C -1.5065273269054629 0.25004597487472785 0.4151670090710382
C -1.1466534363539718 -0.06674181046735837 1.7768140392054865
C 0.10738520176851936 0.049748725807492955 2.168989172829904
C 1.1178891585454367 0.5075998235418053 1.1868056236912834
C 1.3896321793898976 -0.567434581612328 0.20549311382897836
C 2.4328372337818642 -0.4768826764591995 -0.5941068647443866
C 3.643683277340051 -0.5431153668246574 -1.0290887760243885
C 4.805931884145554 -0.42167312131237467 -1.635162051197597
C 5.924133615183419 0.21973124927543977 -0.8993477384026404
H -4.901982866485667 0.9929820679922366 -1.28089202539993
H -6.36441382023564 -0.017595093237635126 -1.2720604590961366
H -4.776470363360111 -0.7493728732430028 -1.7051880502824883
H -3.726048122324063 -0.5688220525579548 1.9063858877260655
H -2.971226720704903 0.38811533132527987 -1.020680184523606
H -0.7134695621920937 0.5890449989127802 -0.28318291750254143
H -1.8592229592713552 -0.40070015695099953 2.509077996057379
H 0.4003763958996419 -0.1889818766994977 3.2092144074482385
H 0.8269111814998802 1.4512330128131308 0.6967808749556175
H 0.7409147374482405 -1.4517375179445287 0.12011173749817423
H 4.92867750503376 -0.7857700987493155 -2.6468585000454943
H 6.668799760965057 0.6543380582917114 -1.6083008435131156
H 5.511641687703929 1.0408802021172494 -0.24423976202478498
H 6.374909735232957 -0.5207253239793104 -0.20803814637606416
