11

C 1.4668059192369811 -0.22594315196566642 -0.1737171225170247
C 0.18937830491837634 -0.06671763090873617 0.5809452949343729
C -0.8606062206619747 0.8695115651450033 0.14815300098490936
C -1.0827137608960022 -0.6466223307986521 0.1420313960191581
H 2.0767841396843325 0.7004813905838684 -0.0019917963152294455
H 2.0640852663801463 -1.050746016672471 0.2960909656522477
H 1.3424700800135798 -0.3380315441417723 -1.2523253801207754
H -1.3459226816030765 1.4551106776694482 0.9701725729279257
H -0.8512532702084434 1.4053597395928696 -0.8042954313520153
H -1.264950047174122 -1.0457342085727417 -0.8662414984846489
H -1.734077729689842 -1.0566684899311645 0.9611779982710936
