17

C 2.713793332100055 0.15204469344073074 0.2774742189024657
C 1.7720661755176488 -0.7596904377114908 -0.40771574171334707
C 0.5015401309276997 -0.40857507161657847 -0.5103958067477443
C -0.38218477020377567 -1.3489023557175308 -1.1974366527763887
C -1.7027731100732098 -1.2812383946137256 -1.2253622718749886
C -2.3903447251555865 -0.7506118557799125 -0.2634177791485403
C -2.3883157501448626 0.5189560780054119 0.4602491270166278
C -1.096309398754145 1.2222226077824374 0.4682865615106963
C 0.13320549108036536 0.875939402374062 0.07445161465866192
H 2.8529347027883794 1.0422882890896836 -0.3678019232750628
H 2.31012193055247 0.5239128479953203 1.2478086769706809
H 3.6614048130770125 -0.35182931580817445 0.509069499410125
H 0.0816858776357514 -2.1551542868143105 -1.7182773754643779
H -3.171830871830431 -1.4420514009976582 0.08961274172490061
H -2.6973365330901133 0.34197940312818137 1.4996375338276597
H -1.130851765548759 2.2236157230262594 0.871225449001138
H 0.9331944711215551 1.5970940742173345 0.19259212797741673
