16

C -2.042264999124784 0.6420198135389039 0.05548157200287528
C -0.6640019896663412 0.3589907742681165 -0.4811487877123437
C 0.3479666634933435 1.2962395142347178 -0.015323480069627927
C 1.5484736680475957 0.8917173596138229 0.35843547630664524
C 1.905775490463285 -0.5172856212247724 0.3176921922952842
C 1.0430621597405854 -1.431058469312851 -0.09296184424170519
C -0.3035626540244057 -1.0692371903768143 -0.5230540638624841
H -1.9541441482748851 0.9329251813475464 1.1347567840325496
H -2.425567389614346 1.5505684632294818 -0.47176801416988373
H -2.671814291841986 -0.24524078382735734 -0.09952396874516627
H 0.09198208667362986 2.3437044492433494 0.01834744662912364
H 2.3126283430249366 1.5956467914387353 0.709739289564273
H 2.9123656994171587 -0.8090390759704772 0.6366688658798104
H 1.3926932410744448 -2.461728335270283 -0.09177358645849283
H -1.0304713060313777 -1.6408495986644438 0.12345375845045256
H -0.4631205733568655 -1.4373732722677164 -1.5790216399013037
