19

C 2.94573934552579 1.0701441505246034 0.07305977593421835
C 1.7493673652340784 0.2681356471720732 -0.250475552306383
C 1.745378702184574 -1.0637586099041012 -0.20718773165017446
C 0.6097989884455911 -1.8710236688971407 -0.5127502096322238
C -0.5151291684771259 -1.5399947907502458 0.07908498935210596
C -1.6037290588145632 -1.065693976355882 0.6291634683497911
C -2.329888691320572 -0.057577896616629445 -0.13640272731503508
C -2.079500618909955 1.3603113922932046 0.3337341395978536
H 2.7815891239548955 1.798026643189179 0.8837348605160456
H 3.269614664097881 1.6076856489797822 -0.8483986659151791
H 3.727008434815575 0.3681370630274354 0.43254168095508555
H 2.669722616112953 -1.5427123887394185 0.07946510857379095
H 0.5163197297962134 -2.7063294838585272 -1.147887485053105
H -1.8141712178212823 -1.4826085644441838 1.5710741983164684
H -2.126287899661325 -0.1048373313128725 -1.2006301202542498
H -3.4304169485172586 -0.27329710176768857 -0.009467279428735724
H -1.773323669632588 1.4138598086476288 1.3866571326811876
H -3.0415098859582876 1.9448196404428681 0.24526720419828751
H -1.300581811054548 1.8767138183699374 -0.26092710173744527
