19

C 3.4672015618113368 1.0714103589657191 1.0011644398192796
C 2.7364895457848326 1.0650174246504238 -0.30410926956875733
C 2.1153534458396073 -0.05502032538566029 -0.6413270201363921
C 1.5591313500202002 -1.2506619802946577 -0.6765042792302955
C 0.23735486391250046 -1.4098595104397205 -0.028033945369991545
C -0.7791987903494069 -0.9346307943544822 -0.956493621174133
C -1.6329705027879269 -0.046834088281671654 -0.5044905156790536
C -2.470595514112816 0.7768791015764982 0.07920931233925955
C -3.6088984463913136 0.14760046948350275 0.734045711594911
H 4.153393375054536 1.9526768552002183 0.9973230027365492
H 2.8062603882698762 1.0253019278420765 1.8646536895437458
H 4.150946304716125 0.17451689100698756 1.0316983273095526
H 2.0911671066590403 -2.0297486101971094 -1.1640178367125447
H 0.16514806082298766 -0.984469140036565 0.9660470240890223
H -0.9465100922365334 -1.1967496174854602 -1.9621425982411975
H -2.2006086633022095 1.791037747748076 -0.005683257100720595
H -3.3221528777299483 -0.5144818754550171 1.5717353014287356
H -4.135641324675692 -0.4812665722273381 -0.04364311410789843
H -4.385869791305505 0.8992817376843512 1.0385350227286079
