22

C 4.352168576771754 -0.9738774868298503 1.333377896234498
C 2.936473817443799 -1.3690006598423416 1.3654023590837894
C 1.9394338359958252 -0.5290450370048361 1.057352926350123
C 0.5251865257550494 -0.9306390037837928 1.0913754219532577
C -0.16605524111855396 -0.7351113138587189 -0.2079796641453422
C -1.222264892145903 0.06350955448873696 -0.3313209261617988
C -1.8978296303976936 0.25288960436723806 -1.6075673858459636
C -2.945277552407632 1.0527486330593505 -1.700611406864937
C -3.4289825111646453 1.7592138603297967 -0.48787228696889207
H 4.480182816751867 0.1411703526357082 1.3765102489026646
H 4.96945712426181 -1.4431335622640016 2.130178769339575
H 4.749962944874494 -1.2637549690037742 0.3169391432806537
H 2.223895883432552 0.4789113590628773 0.7763896086384909
H 0.4815729994050332 -2.0318445086004977 1.32419251400012
H -0.04498436492521855 -0.4458326652382305 1.9135020594215932
H 0.22087719853795598 -1.2713403252057143 -1.0705414184905973
H -1.5753908234579068 0.5767016943359747 0.5444569834559845
H -1.510429995575729 -0.28196486924680725 -2.4635785880395105
H -3.438463985080689 1.1854351280169158 -2.653020310766079
H -3.653687849999526 1.0094605517387403 0.286106284297484
H -4.368119443367179 2.286867566039704 -0.7342440426425385
H -2.6277254335870985 2.4686360968017107 -0.1787219714570064
