21

C 2.162029802496723 -1.1760610958476816 -0.3361334543512387
C 1.0569257041091935 -0.32753785149922743 0.30208398963566696
C 1.3587720956095368 1.0962320503096914 0.009877381598159833
C 0.42297703626564476 2.0339506101744345 0.1322280963317769
C -0.9439513794125812 1.5642463833246179 0.5793733077770374
C -1.2589616415398242 0.4244166601693486 -0.37948756764835917
C -2.328665334841963 -0.5285619031851161 0.08590661025640396
C -1.2343692184029442 -1.3357245115817433 0.7471982526883454
C -0.26750550351876734 -0.6985280610585876 -0.25123373318629494
H 2.415349570228469 -2.0374798420749243 0.2890330579396536
H 1.8606474374672388 -1.4664623163066561 -1.3745164803200147
H 3.0634683082252447 -0.542973900352909 -0.45816598717156315
H 2.35672782592214 1.4131986551133833 -0.31341403992338224
H 0.6453458955485376 3.0570894389454026 -0.07867241657320694
H -1.7095487348208573 2.3365326374711124 0.41926562722449373
H -0.8979479734717106 1.2392903864328115 1.6178857663556439
H -1.3796845485302556 0.8199763207778558 -1.4078078950006374
H -2.7051751720136803 -1.1037392200123681 -0.8101882382022629
H -1.0253968475123008 -1.0595628388074783 1.8032731187710658
H -1.34689965904013 -2.4290738081506604 0.6230770007302053
H -0.244137662767534 -1.279227793841264 -1.199582396931538
