21

C -2.5040192396561514 -1.1034378282189203 0.2605349825889763
C -2.1803725935892295 0.30609963187386946 0.3714174278077765
C -1.0406985877926553 0.8590703116266617 0.1160879237198868
C -0.8473110834619669 2.3804504124199415 0.28077202536702256
C 0.527280802487076 2.387091768500624 0.8514717974011539
C 1.182087354494889 1.294998578361383 0.509142673059
C 0.2856131380674255 0.4422305827060888 -0.33981623316804244
C 0.5502446299555233 -1.014942415065235 -0.11446592778020384
C 1.9589472534213377 -1.3689503220146344 -0.6094502818609803
H -3.599510663919326 -1.2875800927187495 0.554304656168831
H -1.8766394594328684 -1.8094489129825184 0.8372915156700562
H -2.478744097301416 -1.4588374518141372 -0.8051570107668571
H -0.729042141134872 2.7267545263985773 -0.7871174791026017
H 0.9641050357441742 3.1848553332140868 1.4790271149764451
H 2.2143174856846266 1.072883797010552 0.8109834551875734
H 0.4435788900604532 0.6916366673227736 -1.4213934229001386
H 0.4209615314153752 -1.2896103698121508 0.9368692644456484
H -0.14231811030710137 -1.5971078506851952 -0.7512698580475717
H 2.5884078265451294 -1.5099026782114189 0.28082628847573937
H 1.950325675413792 -2.323070196413639 -1.1717127330751533
H 2.3127863533058166 -0.5831834914979247 -1.2883461781666197
