24

C 2.420315514440562 1.6559850452013212 -0.6991253759145336
C 2.230305524595909 0.27898829125869723 -0.5227355645477452
C 1.43850756577789 -0.6529370240401468 -0.2436426734677664
C 2.06768958719717 -2.0549062723915728 -0.2621462833674551
C 0.020403634674337374 -0.652579386174982 0.09479380157824582
C -0.7720534411544234 0.39817109303686277 0.18142896151652013
C -0.898782931682531 1.8570085364521727 0.06937336323302372
C -2.1346765240387815 2.2395815135625052 0.32660398126566
C -3.0000625389513766 1.1035496429786642 0.6436272388352863
C -2.1034294433468688 -0.07078262577091592 0.544439648786754
C -2.114124798801201 -1.4030632284936024 0.6768711142763615
C -0.7616737679882445 -1.87968969869136 0.4012940796911804
H 2.2371206922194067 2.267259079759909 0.23493431952400406
H 1.8409019647430092 2.149205318835468 -1.527151768345797
H 3.4971302254028926 1.880473487617441 -0.9576587415443184
H 3.0498066524047087 -1.9631190884982324 0.20217073706669728
H 2.1295911773522254 -2.358798114520953 -1.309312726123573
H 1.4656024278374284 -2.747244333937087 0.3236011962712409
H -0.1055779698439433 2.539345777108073 -0.18624857742325926
H -2.5216082456873394 3.2776041270771823 0.31759127564051687
H -3.9072056506491637 1.0195655504832546 0.047586624414064214
H -3.0164757341875346 -1.943269427158314 0.9443979454828894
H -0.7380207242492336 -2.4880776106978444 -0.545370153164617
H -0.32368319606500723 -2.4522706529965337 1.2446775763166456
