18

C 3.785396113822586 0.25010686186002107 -0.3202657935200557
C 2.5775120422317683 -0.5446933322082896 -0.5993042086108213
C 1.3907360758692917 -0.24618823056859374 -0.10479431040403818
C 0.19637454570917004 -1.0618510105390542 -0.40190178297696305
C -0.7378170193949937 -1.4923046832122813 0.6286696338589898
C -1.1565703183834255 -0.3619652797439345 -0.2966232604081768
C -1.9353719978133033 0.5627587052654757 -0.7830942771537748
C -3.2632356601384327 0.7888987200796402 -0.19671816697361336
H 3.4543181265323524 1.3269337404945596 -0.25969966220721463
H 4.182468774027287 -0.06000745978165279 0.6717881704375073
H 4.547420512591345 0.19949594741536256 -1.120396524489952
H 1.2770774722806473 0.6181478223359145 0.5377187453706558
H -1.2879053937149285 -2.457203802942476 0.5148030953791093
H -0.5141460336862977 -1.2462885490200823 1.6695079783233628
H -1.6532462508303902 1.2079448714549976 -1.6344278458474009
H -3.8481652950888936 1.5773853308097585 -0.7242235581824088
H -3.828075111403426 -0.17930400636611085 -0.27942383562502005
H -3.1867705826094066 1.1181343546662081 0.8573331883286426
