20

C 3.87591295116112 -0.6898872470599863 0.17460984859859155
C 2.698965564600256 0.028913055057487307 -0.3338737969148983
C 1.5892559748586397 0.22814708793697527 0.35891575762862493
C 0.4353135703687256 0.9581443776661542 -0.201501753584975
C -0.6951807320942489 0.042048204378642345 -0.61398662208574
C -1.211351671714157 -0.7467353236544911 0.5370801800562799
C -2.4670919045483792 -0.655583563724764 0.9562410343117909
C -3.4359469970971057 0.25255124934837114 0.287163464082392
H 3.944438509875974 -0.545407526263742 1.2857164880269567
H 3.8075999845175046 -1.7902088895270067 0.016129168522826174
H 4.828000756611718 -0.3291771595028531 -0.24080307707048285
H 1.5295744703012482 -0.1559528565826661 1.3634183054998301
H 0.7859877048406103 1.4830810338055602 -1.1137618171429293
H 0.036826695977594644 1.7275708725314538 0.48331503238731277
H -0.39908859839622984 -0.6098341729725087 -1.454839471250438
H -1.527154726006256 0.6889599429076083 -0.9606134036409557
H -2.818521653944056 -1.2391639579088065 1.7952683787895496
H -4.460032525649576 0.07711090236889942 0.649001066158421
H -3.4316266766436483 -0.018709221710177866 -0.7884974714543534
H -3.085880697019337 1.2941331929058573 0.4414138783827596
