19

C -3.5407308365083736 -0.6533692452376983 0.3421486285480802
C -3.097424851310355 0.7600055145667725 0.39979344386502996
C -1.8241559972052008 1.0294615773512044 0.3635493912693912
C -0.8516161025191282 -0.03101157962942242 0.2684384369297178
C 0.4596549890006499 0.22203702898818115 0.22981296918141061
C 1.4202583077571302 -0.8674537417544232 0.13363015184514893
C 2.70784311331716 -0.6170660103673924 0.09580561334181875
C 3.204332970814364 0.7808152491891313 0.15051178671581375
H -3.407293702677028 -1.0166404884779177 -0.6861426006385325
H -4.6311870523458 -0.641524512345615 0.6363791122688369
H -3.040084307275035 -1.2645426465269562 1.106268596645117
H -1.504013464488494 2.0485977054423348 0.4050993016826842
H -1.2066663162178275 -1.0778098910577414 0.22680139309359154
H 0.7496187916718391 1.2573977239315954 0.2734235559779135
H 1.077866730036674 -1.892285674149177 0.09266016527039071
H 3.4336174427989574 -1.415927137214648 0.024434165460633196
H 4.28370031434443 0.8328143271210894 -0.10341024476907806
H 2.641206161249332 1.454751613287075 -0.5224563180565337
H 3.125073809556796 1.0917501868835933 1.226380987249413
