18

C 4.005252382198616 0.18110888305642428 -0.727750385313761
C 2.9760886924301335 1.2570963751927415 -0.8738606955714755
C 1.6917111174196124 0.9375488695637749 -0.7646064661526595
C 0.5816039616792187 0.2736873697501458 -0.6033642776405357
C 0.06533782579937783 -0.04552995522649924 0.7397423727844344
C -1.37399633121566 -0.3762026562513434 0.6978961153196002
C -2.2069805393358233 0.17542098172506082 -0.1636315746390604
C -3.6345500016539862 -0.1975967717476105 -0.15435776279194904
H 4.112522269419153 -0.14400286290231284 0.3296030081192668
H 4.956733750134636 0.5396431313999003 -1.1660972575608417
H 3.6835126581709376 -0.6821501278645996 -1.3258173919264595
H 0.04549588640565912 -0.044431986708486616 -1.4700240221939502
H 0.6501168584510333 -0.8444552216224768 1.2488632302534888
H -1.7560885737164447 -1.1002158985055657 1.4037906712976258
H -1.794777464181634 0.9013040923514873 -0.8629553928884494
H -4.172264111317004 0.43857322837781115 0.5861066352554141
H -3.7739567518549606 -1.2763362966717606 0.10681684565021726
H -4.055761628832989 0.006538846083259489 -1.1446190263040084
