19

C 4.367281989986001 0.1112853222566633 -0.8285421422426673
C 3.1645669598100556 0.31162060771980704 -1.7018154728025956
C 2.02852379404718 0.5408305705590367 -1.0564315620162148
C 1.0609894930917405 0.7416920755727239 -0.21584098273768745
C 0.3909610867933588 -0.35930373312110897 0.4271286151467026
C -0.9262506986949862 -0.41383173789555366 0.5324864398479509
C -1.7274877833226225 0.6650663698523561 -0.01411198115611846
C -3.040278576240158 0.6984116808272437 0.04271886096489239
C -3.8684147938923568 -0.35940852513744764 0.6710079314697357
H 4.176828335245681 -0.5832043010380799 -0.004164163918034486
H 4.614189101866256 1.1410685864303307 -0.43634153273889076
H 5.232925159677547 -0.20781748134401337 -1.4357852384041463
H 0.7696975374345879 1.7409750410688052 -0.003315299967582228
H 0.9842404589376678 -1.1699393564225786 0.8383234035485858
H -1.4147033485497915 -1.2320693517340482 1.0097939718642268
H -3.5669795525368904 1.537436547353951 -0.38787084343018063
H -4.825569441723994 0.06889031757301103 1.0791233714468773
H -4.092349942445024 -1.1603287250365777 -0.06258717447028098
H -3.3281697794838534 -0.7716203195124061 1.5462237995954542
