17

C 2.5193061843281055 0.16287931348738233 -0.06970044290227029
C 1.0266082705346309 0.31089346274222673 -0.3993932007674361
C 0.2198392816868212 -0.8513992149874695 0.005147328731728989
C -1.195529648148209 -1.047656473276318 -0.5260867673429546
C -1.9890705704858413 -0.40310948081603304 0.6213650843801042
C -1.2676270785060901 0.9544753270784155 0.647206088619058
C 0.1532903520078647 0.5160391400971809 0.7468704236461866
H 3.0031087540790127 1.1286515860597193 0.09167930004987984
H 2.6360463205404505 -0.44197477866540885 0.8688150051740384
H 2.973875881988366 -0.44301300090765283 -0.8871000073986957
H 0.6337494707619103 -1.6909788422008505 0.5978613666064433
H -1.2897228459554142 -0.31091755045329134 -1.3761505959294906
H -1.7510283023417716 -0.9880349112252144 1.5184002389423645
H -3.0471113934006158 -0.30326641629450474 0.3881012001325352
H -1.6405261371499578 1.4838068755727187 1.53251676617492
H -1.5299062402578012 1.4395769307527648 -0.3138542918588152
H 0.5446977003185139 0.48402803303633307 1.8041224447101394
