19

C 3.3703771630087482 -0.051024970521175037 -0.0899943183544693
C 2.839115054483767 -0.6519182823510524 -1.2847666419705706
C 1.587648654950316 -0.7070388641991646 -1.6115147309815248
C 0.4833064515589682 -0.20861325780296194 -0.8994345178715007
C 0.2583630959922785 0.41154726513800033 0.194019645989487
C -1.1807419763560367 0.7263781020451383 0.5099331933069922
C -1.9030673916663603 1.2300648907810374 -0.6655401258883283
C -2.922712508864246 0.4255540230533283 -0.8907597812723034
C -2.9501642822545078 -0.6433398654109885 0.09414358246967587
C -1.9316776233425508 -0.46556179024846217 0.9112997058781007
H 3.021694302063519 -0.49261009171404685 0.869312018647725
H 3.14995199928167 1.0435728904353794 -0.02599480954267913
H 4.490796153503097 -0.16725403873294065 -0.11742447523833294
H 1.3916870897275029 -1.2269943483841208 -2.597764115708848
H 1.0203281747853274 0.7098930018366264 0.8771476795153579
H -1.6638929633341484 2.102483156320149 -1.2596816554149035
H -3.6357299791914754 0.5686738441066734 -1.7160317567316359
H -3.7024217734541667 -1.452969767863192 0.13247270170075673
H -1.722859640891747 -1.1508418964882343 1.7617944606741174
