14

C -2.9073876953073277 0.3316298245827764 0.34916239418230977
C -1.4379008055569134 0.24421919679930892 0.6734437499355654
C -0.6705410280359677 0.228174026237145 -0.5667238326150281
C 0.49120861432760116 -0.3761214295614345 -0.4968226353440386
C 1.6913683540927458 -0.9038981886994307 -0.32223871593954223
C 2.7329773257093963 0.01445585453519889 0.11358305720591283
H -3.216671161012912 -0.4823198471813718 -0.3631279639304633
H -3.1238878227239626 1.2855944176449412 -0.18303606908174483
H -3.5147621005055214 0.24970522864277445 1.273201662254262
H -0.8900702174967152 0.6237410305032451 -1.519321850786668
H 1.7213782401486697 -1.9347800546817169 -0.5266788435366394
H 2.5409667896338664 1.0392939400743242 -0.20169282220904458
H 2.8883073837386655 -0.01749204227071698 1.2120797702540345
H 3.6950141229884803 -0.3022019566250031 -0.3803191730717057
