29

C 3.6082125825101086 -0.5960936751851499 -0.49586149663049417
C 2.4687636006367493 -0.03095612713623024 0.24987255524393354
C 1.5039891488242907 0.6219475279563982 -0.3806795289896364
C 0.33343558457747224 1.2124524332150852 0.313468700442355
C -0.9480747357596333 0.8326196569153024 -0.30831494322628045
C -1.823348308509689 1.818772202529879 -0.907959046997316
C -1.535223010540626 3.10189751576811 -0.9364059440594508
C -0.3010797686273121 3.6886909114098465 -0.3686428150025987
C -1.3088910517609424 -0.4325020396280969 -0.32066841239707483
C -0.40282609361853733 -1.4546006835490561 0.3002849863046876
C -1.1480975881946136 -2.0611659528604345 1.4202213503356782
C -1.428516726288777 -3.3146601214359905 1.1380619853052036
C -0.8961099317716293 -3.632585100316474 -0.1775008990383445
C -0.3016813110575447 -2.5702688268849663 -0.6737781230958666
H 4.056994565924103 -1.4607441932404786 0.03533542508448056
H 3.226734074735055 -0.9288550725497353 -1.4872649685095414
H 4.388686295300586 0.15249935300174408 -0.6881489056600342
H 1.5499567411161232 0.743258340613182 -1.4534244360215327
H 0.376261192837343 0.8304423706441573 1.372464354011968
H -2.7500166021158945 1.490120823182517 -1.349994602831012
H -2.271617387704443 3.7677467664792905 -1.4179674941199034
H -0.3339205431722723 4.7896497469596095 -0.5195149847358993
H 0.5812195580111024 3.3217772158932872 -0.8995189104749541
H -0.21675539931499063 3.5575786538204737 0.7349365143939269
H -2.238155955552549 -0.7097964173855861 -0.7712812937949206
H -1.414551565192887 -1.5358796260624439 2.329905106159503
H -1.977098193011326 -4.038564249249376 1.7720423175962614
H -0.9791195893159336 -4.606567203298908 -0.6747488764506211
H 0.18083041703420577 -2.556214229607173 -1.65868610267016
