21

C -3.739431698783502 -0.09130135386957343 0.24698362352112743
C -2.593407681940109 -0.966729616518222 0.5083574794062264
C -1.3646652747664285 -0.48653581114055644 0.2701993153940781
C -0.22644133355158272 -1.379956455789533 0.5385609494679275
C 1.0791418417363217 -0.7307558317830702 0.23491832927071152
C 1.1696852047073456 0.5021355324133322 -0.22012961046091734
C 0.016680007810412793 1.3705307599666499 -0.4786989241260592
C -1.177670344820066 0.8670580818512441 -0.23391459336428655
C 2.613834194517021 0.7922862693456435 -0.39963820863470084
C 3.3159472379001604 -0.42443561309246086 0.009170348885277917
C 2.426463442267086 -1.3238180663984005 0.3830353336290821
H -3.5945496131201913 0.8561933922457317 0.8439794156446848
H -3.6941278392309944 0.2614157873875513 -0.8239813421758003
H -4.701389602151582 -0.5467016354712934 0.4858562680923269
H -0.32387249001866514 -2.3583824620453946 0.04571986802469352
H 0.12186478983584366 2.377169754391311 -0.8518562189858913
H -2.0824349058293703 1.4358093139543706 -0.39568118230716415
H 2.8075115059129754 1.0923841096583 -1.4486412402492157
H 2.929049827217757 1.6710208406502056 0.22561880774142637
H 4.384112119310648 -0.5881162837236257 0.01460991220490839
H 2.633700612998018 -2.329270712031996 0.7398466123636136
