24

C 5.417424252993924 -0.8831088992290939 -0.23404176103865804
C 5.048561634314142 0.4190969178291265 -0.8950831783952226
C 3.7637914498229406 0.7468789385065628 -0.9287328639751051
C 2.469541543212961 0.7748628673350814 -0.7995094858828836
C 1.636539865172937 0.09353748908238246 -1.80378170116189
C 0.7919273505823029 -0.9068495881620114 -1.1563035382285494
C -0.4676372246995765 -0.5878779909427878 -0.9901643107355484
C -1.684459927410057 -0.11939642691058883 -0.7817851188031235
C -1.8833772014577526 0.5951257273908783 0.43457423675827156
C -2.844545561857889 0.1669534956989261 1.2108435654633398
C -3.876626890404537 -0.27635159563254685 1.8831121343697335
C -5.172910800259583 0.3293990930781283 1.5246378227296127
H 6.375830670369118 -1.2296134180430174 -0.679599058212802
H 5.507660591389445 -0.6983987296180187 0.8569835337122873
H 4.671524940689021 -1.6694435843903976 -0.4390389075233729
H 2.0220595636653593 1.281380574130065 0.025597335773132425
H 1.0670795203322245 0.749110376176877 -2.45630353480481
H 1.0324310950925686 -1.8663349417927404 -0.7897617053577595
H -2.3534728867981243 -0.3461691897866554 -1.5677393727105542
H -1.3682200679069352 1.4431465093975782 0.8281088234485608
H -3.651781652990239 -1.0121779560367195 2.5957705638643005
H -5.978234404432696 0.11457690569096417 2.254109232889701
H -5.500958338582832 -0.16701701782265133 0.5677124021495753
H -5.022147520836403 1.411310159351972 1.3403948856717245
