21

C 4.720695740219094 -0.2222308267747103 -0.5548969439152807
C 3.392963386885157 -0.7624420857514964 -0.16912633975052715
C 2.351148724039342 0.01713911302164956 0.030880502886200156
C 1.046039245024645 -0.5028733624169924 0.40913647236662415
C 0.030011415534887523 0.30185146788280526 0.6004163682591951
C -1.274252774614912 -0.26837668253318714 0.9827428850828399
C -2.3019758468946714 0.7653955236102082 1.230310592677265
C -3.4787988491350825 0.6879234382728896 0.6428373438458658
C -3.7476067893738523 -0.455261203837234 -0.26857028037597
H 4.576989585892133 0.6393211235624155 -1.2471614859290225
H 5.342716333641313 -1.003780649501813 -1.041320335529682
H 5.192838855698651 0.17943656084066592 0.36354579576384904
H 2.4862852305854366 1.080668661309001 -0.09444640434837195
H 0.9497123780371137 -1.5911700312471921 0.5266279497368124
H 0.1558742555364646 1.3550219194508524 0.47836517125486494
H -1.627349849239525 -1.061438548120205 0.3171678030315124
H -2.1045658449727056 1.6146206922317685 1.9064045410081762
H -4.245092698861749 1.4610868200939602 0.8290265378449229
H -3.7135946890834615 -1.380686662891294 0.35335662319748057
H -4.753190765696054 -0.4016029420433032 -0.7258480005998978
H -2.998847043222233 -0.45260232515878257 -1.073162217568236
