18

C 3.725171075335182 0.7059291791061602 0.3153427448599149
C 2.5685543673784337 -0.18970054885731127 0.34196356552117035
C 1.3234285643765689 0.15473483717882022 0.2021775776876077
C 0.26753646764496875 -0.8435217200325248 0.24971787068551668
C -1.0052060875999325 -0.517650190345855 0.11023998650662493
C -1.5699217425743568 0.7906682190689979 -0.10140450662386453
C -2.8834899201980884 0.6261698283813234 -0.1809107057843104
C -3.213973031207815 -0.7753373438065839 -0.025893200630888166
C -2.1020244261515506 -1.4623029038238156 0.14773404134803184
H 3.4588757294486494 1.6487921325450916 -0.24109487601127863
H 4.103435836681377 0.9742576686520075 1.3350543063702387
H 4.579938010158877 0.22266100624424523 -0.22788151087630315
H 1.0514945830966729 1.198197044195179 0.047044554720629024
H 0.5527914118028322 -1.877304507435599 0.40461392954570613
H -1.0476531783333067 1.7196624252682473 -0.18092707351699266
H -3.6004269338863297 1.4016469799659756 -0.3356301500996604
H -4.188927622718051 -1.2441693953752324 -0.04028566340210177
H -2.019603103254243 -2.5327327109291162 0.2918069803478922
