14

C 2.6719898300956397 0.03265400403426267 0.285901123116824
C 1.3655803539652247 -0.5286443313129124 -0.13399800488473754
C 0.3791805122874502 0.22752225939242768 -0.565198061851526
C -0.9127144001746031 -0.33135483343742594 -0.9800573025436722
C -2.1357402709236704 0.47516587624498335 -0.4752234998515495
C -1.870516215984494 -0.9523215870189674 -0.07489382096611959
H 3.498884464592683 -0.5104719755281198 -0.1962027721202881
H 2.8202444996937612 0.027651844663979516 1.370498611595282
H 2.76462810907391 1.107052994351674 -0.046621617743707294
H 0.5299123990169121 1.2909923704892075 -0.6133837964614173
H -1.9454667992128014 1.258818147543931 0.273983473439683
H -2.8743424966371993 0.6943901766912801 -1.2693646580494002
H -2.589213260447025 -1.6816469576628945 -0.5493913867504863
H -1.7024267253457535 -1.109807988451421 1.0061088874126756
