29

C 3.902361275876245 0.37801662807800196 -1.3733788426422082
C 2.5799165610458163 0.17992678774860782 -0.7539216129022461
C 2.412865045997546 -0.029344928157846024 0.5388825085759601
C 3.635456001108022 -0.062435562242611556 1.3916179061747134
C 1.1135393253244785 -0.230142418334197 1.1885276325420389
C -0.03386043717747934 0.29873083133171846 0.442965105695354
C -1.0548662197653094 -0.5084775687982664 0.2038513355970889
C -2.237889830218683 -0.09189358890783178 -0.522132246560728
C -2.3136150123352355 1.2975603393180286 -1.0213467959014837
C -2.791172485150593 2.2387974019843644 0.06009503971244601
C -3.2108550080156046 -0.9487294375380796 -0.7207686283707546
C -3.121326771824162 -2.343304659852523 -0.2130120177436489
H 4.488830391718117 1.1088080333487484 -0.7738207223794658
H 4.453198156996375 -0.581621256625909 -1.3398537684698926
H 3.7907325311853373 0.7070524914607393 -2.4149765158364485
H 3.3936632763245407 -0.19844730030800642 2.469070837043617
H 4.219055596309282 0.877083930220393 1.316020895797929
H 4.265981222244003 -0.9516644944008316 1.109018535734279
H 0.9537579389526483 -1.2197369779587 1.6134819680861434
H -0.04421707954979459 1.3228374388352746 0.09789022234885231
H -1.0109326897976125 -1.533224201553657 0.5658963689918596
H -1.388199341923417 1.6164544067637008 -1.5040666949883055
H -3.4371627801002647 2.999933968265703 -0.39345316151253235
H -1.9564231665991716 2.719189371602478 0.610914930373244
H -3.341576815035411 1.6258895642854774 0.8159044377987403
H -4.114702822959228 -0.690462016813915 -1.2555716828161767
H -2.2203110207737433 -2.8224575331536252 -0.6512451614165089
H -2.8946493920758836 -2.2439346478832447 0.8892702714879932
H -4.037596449780886 -2.9144046007140174 -0.3758601444198017
