21

C 1.9919215024972063 -0.35649558853750873 -1.6186580535164554
C 0.608796156621457 -0.20296079284022633 -1.109415223313507
C 0.3227404907660395 -0.0321879643592696 0.17560911277880353
C -1.0777002802180986 0.11899803158841557 0.6560612983272968
C -1.9773087169691776 -0.4925406632563697 -0.3866968792909705
C -3.4344146087412644 -0.4089532030406074 -0.022160455276322863
C 1.492138792205885 0.0002959889340518849 1.125909826548986
C 1.732038717828834 1.1653299294818462 1.9308924154676523
C 2.670033763128311 0.813846105038084 0.7613932953788645
H 2.444243590490541 0.6362934491905643 -1.8199911212204543
H 1.9388396516651936 -0.9007947278098181 -2.586870957420091
H 2.624081591625378 -0.9655080768074422 -0.9360493571252382
H -1.307288555596695 1.1832570090826064 0.8523605387902933
H -1.8457931227242736 -0.004602306375641325 -1.3674765156842705
H -1.6778998892809196 -1.5616867603839883 -0.47863056831251066
H -3.8659918027572098 0.5689692590237091 -0.28666934565601304
H -3.548892292811887 -0.6565809628571732 1.0591258097095284
H -3.954730919667025 -1.1862252302891165 -0.6217125964729175
H 1.692040939751089 -1.0352842242391942 1.5108727118490874
H 1.6517459818796743 1.914954753930652 2.664173169473493
H 3.5213990103046036 1.401875974498588 0.49793289497145776
