13

C -2.324915638300412 0.35317524721904897 -0.4250236408896792
C -0.8755031639996775 0.07353272950883996 -0.677557509451602
C -0.1307475236904544 -0.6419215503279444 0.1399047184254312
C 1.279888656122559 -0.882646740410794 -0.15793754178243563
C 2.1264714067389137 0.36707241279155034 -0.1667471970906797
H -2.7471634854498057 0.819522804993067 -1.3341215417187595
H -2.442044258309992 1.1013840075855066 0.3956933308986783
H -2.900173118654485 -0.5671974054944768 -0.24192766835460577
H -0.5762622864154737 -1.046148643189182 1.029548473644548
H 1.480542259542588 -1.5542895548970872 -0.9912811653451679
H 1.8444207446785568 1.0241109333637723 0.6561538631727829
H 2.0711156709618677 0.9241397157372154 -1.120849624944811
H 3.1943707367761767 0.029266043120621966 -0.051994474758419895
