17

C 2.0755992574882125 -0.8962354530159711 1.3236814906672616
C 1.8128503856419071 0.5631629509759376 1.2985494544352743
C 1.0955996676278004 1.1687587382887819 0.35616818123935834
C 0.48956952094063905 0.4446378942535297 -0.7597466656052644
C -0.761587611412223 0.9997714776975898 -1.2633298357488456
C -1.9188280415857237 0.4483188937015777 -0.9676303211313015
C -1.9512259742949938 -0.7593637327302003 -0.10683310861905573
H 2.955104039196559 -1.159770220792577 0.6794838328848203
H 1.2019592746586183 -1.509236458228886 1.079670849194614
H 2.3883893951147948 -1.1708487818309328 2.3681876927506504
H 0.9845283133873749 2.2435981953784374 0.46401196211300677
H 1.2024343316097947 0.13795774284783552 -1.550519024922349
H -0.750342400204417 1.8750358696745248 -1.88824827938872
H -2.8616732336368202 0.8417277235998785 -1.329292261891304
H -2.892336449036347 -0.7966631470342418 0.5065788132188206
H -1.0767635550936479 -0.7729175847443215 0.5664363430513898
H -1.9932769204029177 -1.657934108040959 -0.7771691222487142
