19

C -2.5529484677822154 -0.17435415131122742 0.04130655365156579
C -1.2281217281967813 -0.1439609626513874 0.678363752497183
C -0.7963867168065778 1.33278934576671 1.0122884567834967
C 0.48128347653164694 1.5428447141408863 0.7273187866097139
C 1.3132663987761384 0.974208211382413 -0.3445754967012384
C 0.29380599374470673 0.12901260182457638 -1.2030530432035342
C -0.06366911082840322 -0.5473800221904866 -0.12352047689849747
C 1.0593993761200062 -1.427247373604607 0.15610772528457412
C 2.1299823387045276 -0.25569741808727253 0.14572781461707837
H -2.979729917715502 0.8161845725162714 -0.21859712662618663
H -3.279754231119849 -0.650789841002906 0.763482393047424
H -2.575667740783809 -0.7712880924791827 -0.9039831141434382
H -1.5178867199357249 1.9891105302244183 1.410344105481729
H 1.8662887591000463 1.635738324315251 -0.9704597092471545
H 0.13571866781413852 0.2519439014422163 -2.2514396140587833
H 1.32649969141709 -2.1912284527853183 -0.5571631119987015
H 1.0697672435622256 -1.8807088810422474 1.1618392611829749
H 2.5206897091955884 -0.12297301459847114 1.1409483510365428
H 2.7974629782027756 -0.5062039918596538 -0.6649355073148178
