23

C 3.9102251460942052 -1.0544611830382926 0.14383375267563897
C 3.667772850603895 -0.1404227080559981 -0.9918197916783673
C 2.52759271500919 0.502975814015304 -1.1429519172427454
C 1.478822812281357 0.28492675448389476 -0.1321311872996088
C 0.3104101376302502 0.8865897971176104 -0.20505856894248292
C -0.7085410794300203 0.660891695312902 0.79666976346965
C -2.1116725361155577 0.6392033090887433 0.2939338107315192
C -2.2094285632957607 -0.49307873835932464 -0.7300923140582437
C -3.1287606969422557 0.3488229021677769 1.3594353350610615
H 3.983630036657705 -0.4516785453636168 1.0736071698075087
H 4.837776596519528 -1.626417034577904 -0.009230095610864101
H 3.0696124065414963 -1.7874858477026294 0.24713648785711764
H 2.3342466098974155 1.1680705696666114 -1.957970614454153
H 1.6464082709562806 -0.3851608033668536 0.7071021319795501
H 0.1477464100510266 1.550733836138234 -1.0390938841182338
H -0.4726064089276588 -0.027337689319026054 1.5911542384436586
H -2.324089616902769 1.6069628010829011 -0.20047044274751608
H -1.2289907870818346 -0.6235989640211592 -1.1963501097031073
H -2.4523705847971766 -1.4176432226862017 -0.16180159151916337
H -3.024337507055001 -0.32310198658900174 -1.4493555095863546
H -3.0975964676449164 -0.7610721399152793 1.545895733196013
H -4.139706852268474 0.5086268328876659 0.8818568245456602
H -3.016142891833658 0.9336545510817612 2.272410887680753
