13

C 2.695380019843449 0.08508316092506854 -0.042268860917135664
C 1.6531296189551514 -0.7645450940763409 -0.6236561851264345
C 0.444384448205196 -0.6437351841217857 -0.1498714439613113
C -0.7799375492449276 -0.2802389660637819 0.09987251498707667
C -2.040671425491473 0.4993516869077751 -0.21223006374313588
C -1.9287526477783727 -0.3875777034061942 0.9670019706590433
H 2.543040499571692 0.2809230844445421 1.0579544338632503
H 2.8246550470057294 1.053242324703893 -0.5665104136361887
H 3.6602877085747614 -0.4681946631463599 -0.10362220602095798
H -1.9553719241047751 1.607729394864745 -0.08261003314708587
H -2.577898572739535 0.20123698036563778 -1.1329650501701622
H -1.9718181307227076 0.11758475411648006 1.957494585135822
H -2.5664270920747003 -1.3008597755137734 0.9447046616506074
