20

C 2.257497179310761 -1.6260389019007393 -0.2319979283285056
C 2.348241587490158 -0.223955688955995 0.25457356994996444
C 1.2486062705513359 0.49088947915164777 0.43861449931607416
C 1.419757526770386 1.8933125579589976 0.9298026624479553
C -0.05350036176859307 -0.11538698914746147 0.1576361108919376
C -1.0386067624931985 0.7866404065602297 -0.45210788794820805
C -2.3154424047703577 0.44758051088897177 -0.41525036430784623
C -2.7396395564017197 -0.8216604500028628 0.2313284999240895
H 1.6143271407618038 -2.257456580310206 0.4092437358531258
H 3.316350440267634 -2.0138392872926656 -0.2512354072889442
H 1.83268433380931 -1.6801756527368414 -1.2749185569885362
H 0.4898663606646459 2.294065174503434 1.3836283829024367
H 1.7747161321750946 2.5706948683633524 0.1349384609192734
H 2.173921522672066 1.875841977362541 1.7424756979891096
H 0.06314386155495312 -0.9923772775501243 -0.49666213883434057
H -0.7688718668459033 1.7172921207398737 -0.9310236970041155
H -3.080971385757302 1.0860376483816239 -0.8548064456276482
H -1.9753328307992124 -1.1765954544470587 0.9507307254460229
H -3.692260188749388 -0.6115277919553196 0.7579210602413504
H -2.8744869984420776 -1.6433406696114625 -0.5161239637171628
