19

C 2.485477388925111 -0.011490180934104472 0.4980481435702934
C 1.412464494155194 0.5269127737701303 -0.3882113997402223
C 0.11926924462179672 -0.19472281754311138 -0.25398662250428994
C -0.013392230356715574 -1.5611263980533425 -0.34573987945152906
C -1.2149727452788421 -2.215084562470344 -0.21967414734808913
C -2.340418580522858 -1.439541837136854 0.011741455069865672
C -2.2736282369793623 -0.06511897762914162 0.11398714034155043
C -1.0251372422446494 0.536275639531289 -0.02337527417104877
C -0.9412124852294366 2.0060350437213144 0.08409629429449199
H 2.8913649400237786 0.8363924117432376 1.1229547773190078
H 3.348883290065239 -0.3151674912289686 -0.1511295079472739
H 2.1555477619505163 -0.8197602127663993 1.1629105767146415
H 1.6821014785404562 0.5312856691975937 -1.4602872569165797
H 0.8993786912306886 -2.1432490437237854 -0.5295932713934878
H -1.2801569815838452 -3.300742750478517 -0.2985695361925043
H -3.158804719260701 0.5513945157450088 0.2965225057941347
H -0.9188147779742694 2.305156366074071 1.1629344158436283
H -1.8342314147644831 2.4216341042027927 -0.42658038771356854
H 0.006282124682573796 2.350917747979257 -0.35604802556910137
