19

C 2.9174610070119615 -0.5264976874834632 -1.0082552339341297
C 1.82127355355068 -0.6015603231344626 0.017991980786007496
C 1.4204777413231964 0.7320210583369134 0.5043628302279551
C 0.16253201331450953 0.9652830460743175 0.8160798697966523
C -0.8248853365962941 -0.12154192123335324 0.6704378634614258
C -2.090361314723938 0.11975093586322356 1.3712605227869665
C -3.085830267465273 0.01711206583908125 0.5113757005002172
C -2.5257385027152286 -0.296039514990884 -0.7945702652001926
C -1.2180782357674529 -0.3787729877749783 -0.7148624742407415
H 3.6299381786729197 0.3033617612657623 -0.8159110338538863
H 2.414330240448829 -0.29804202956686676 -1.9902812176065419
H 3.4551480294228836 -1.5104077382352739 -1.073198303697988
H 1.9904926914952532 -1.3335854571410637 0.8096843238571885
H 2.13566050033946 1.5368252202009165 0.6152871788245191
H -0.14851461653673365 1.9409270697465768 1.1752566878368202
H -2.258715425306876 0.35307158991706167 2.435566221096353
H -4.162870161469373 0.14023723511231712 0.710920569887006
H -3.0984354065313084 -0.4429161608321472 -1.7130780592790962
H -0.5338846884654714 -0.5992261619680891 -1.5280671612477947
