22

C -3.507591422418938 0.4040954795874453 0.23006450369683323
C -2.4483175508187225 -0.6320980965828777 0.14889594706146955
C -1.0519285914806695 -0.09495477871691911 0.32396152003074785
C -0.007252157302262922 -1.1711887074944574 0.23796379765055614
C 1.3844901598265844 -0.605374822656155 0.4194048101369593
C 1.7311381003679003 0.4192340252740048 -0.6230113778948635
C 3.15048906368002 0.9044441704873969 -0.329857520261858
H -3.0999021839550824 1.3531904161159853 0.6346596202175684
H -4.320390786732133 0.01456897078945718 0.8959059209575883
H -3.985235967088648 0.6578493884431338 -0.7355619174449569
H -2.6318892319343403 -1.5659713979498926 0.6656270893209933
H -0.8186938130021048 0.7188400899774722 -0.3845259708085534
H -1.003245556609305 0.3517521255952183 1.3393658546730005
H -0.19064948513923202 -2.0196867331338852 0.896652582363216
H -0.02079273861250168 -1.591902627355575 -0.8109592908775868
H 1.45441683533984 -0.08427391950243798 1.4130696433386376
H 2.153580743318863 -1.3868737529100241 0.38790007478246946
H 1.6870689486820991 0.008683379949965033 -1.6468580793255443
H 1.1053662782898592 1.342550291261087 -0.5572582105386058
H 3.413720373590835 1.7691686519234027 -0.9485758013599637
H 3.8187233213565515 0.027357007965940993 -0.4941809469819832
H 3.186895660641557 1.1805908389316684 0.7225907023018574
