19

C -3.011331902105075 1.3674708200979866 0.24307073218325356
C -2.269236876305505 0.12226149641512243 0.6596770949551309
C -1.590371689284305 -0.43592090648287457 -0.49781823229163485
C -0.5803157813930716 -1.2364526418045751 -0.2654074091783488
C 0.47701541930011965 -1.9321516732435697 0.07936850504627278
C 1.6986947207408607 -1.2051043631859923 0.22795750377879434
C 1.9316254890792293 -0.0710912147255456 -0.3758059282197463
C 3.1904904002558783 0.7007939447135155 -0.23712717036220124
H -2.822728792311829 2.179809204296406 0.9644765735451393
H -2.646342535224903 1.7115908766633336 -0.7588625679395014
H -4.104021043578591 1.1566965160264557 0.1602629365773548
H -2.8959952352045293 -0.5881485518173647 1.219578581096336
H -1.7852730325469612 -0.29479877891409867 -1.5389037442807727
H 0.2831220916170299 -2.9598668837351276 0.20612800596916434
H 2.4689014135865284 -1.606338469943101 0.8674775143051502
H 1.1621386546156365 0.33381596832319693 -1.017321235892442
H 3.8786725039980654 0.20059364602087754 0.48677586572110393
H 3.691977510765041 0.8595713656234837 -1.2163965260472998
H 2.9229786839965564 1.6972696456718122 0.2047912428587566
