13

C -2.0909358412919943 0.2440357233212269 -0.298990677157793
C -1.1362369154836789 -0.8769839365223768 0.034387449910171106
C 0.07346389953276737 -0.8630331209664095 -0.7816141123631303
C 1.157373794554829 -0.2201529629201567 -0.386110540587665
C 2.553631007632146 0.2217372393412679 -0.5669609464660109
C 1.856624177974231 0.5995570279355448 0.5928569679525069
H -1.5496397041858343 1.196155347340279 -0.5053362563303594
H -2.7134004971354444 0.040961451561272275 -1.185983789166655
H -2.763846414895291 0.4265252653638597 0.5584884524454131
H -0.8733375949442606 -0.8042913091178823 1.1178939751010322
H 0.1294064652485439 -1.3729839553193928 -1.7319176346072567
H 3.484715364483115 0.28073314026939244 -1.1087760704628815
H 1.8721822585109156 1.1277400897133523 1.5260648140877786
