17

C 2.4742979478656046 0.6323158704201255 -0.0038519766088007607
C 1.9085072342484306 -0.5534469547296446 0.7103602012966621
C 0.7377401278847908 -1.1453267423937965 0.03928795774546333
C -0.43783182735264015 -0.5588980852495073 -0.05964445553289327
C -0.8242791204358829 0.758260561620961 0.45527831910348154
C -2.0881021761890115 0.9781806597839481 0.14903418312270247
C -2.595894135378484 -0.1818030175601826 -0.5818071142451136
C -1.6199636957349313 -1.0870240502110409 -0.703376425011701
H 3.593787953888198 0.5991041735569466 0.12459534890007126
H 2.1066230197204683 1.6058519282424653 0.3681890269191236
H 2.3046052286897645 0.5348817563295089 -1.092226585056623
H 1.812741378168943 -0.43985000278419345 1.7830419464712197
H 0.8543193380849988 -2.114088103727789 -0.3943000575643619
H -0.2048390291565495 1.4557358960136748 0.9974554901088525
H -2.6877300842353202 1.8485754429118086 0.3767002386916527
H -3.6175470112649437 -0.2775304623279566 -0.9625354656214046
H -1.7164351488034777 -2.0549388698953797 -1.2062006327183643
