33

C 2.024665878881357 -3.1274647151088004 0.6544050259847558
C 1.275672641838728 -2.8389705890090564 -0.6402611584333161
C 0.8557460660360469 -1.38610072994233 -0.6787748725912227
C -0.13874640907408844 -1.0331998918494871 -1.4589274848826397
C -0.6099157425873386 0.3352508923739181 -1.5605258088764966
C -2.0257532624844954 0.5155972149049824 -1.1853074295323869
C -2.420266216470975 -0.17561818063687015 -0.15597078671091466
C -2.7698145231813647 -0.989671179944773 0.8178387905290269
C -3.218802856755771 -2.316989021819241 0.421440556940736
C 0.17009208977892276 1.2441700342517654 -0.6840889723607347
C 0.04924855835548644 2.5817518923836613 -0.49002496081176233
C 1.039451129926362 3.016155339360133 0.4620748787943058
C 1.2020152622966984 4.430449097107988 0.9180142103108542
C 1.7618020005655357 1.9867926465982801 0.8562696290037485
C 1.2559700446483846 0.8064863992146305 0.15607098066060304
C 1.6064503565248966 -0.4779110806174572 0.17220234599000453
H 1.9669200388214603 -4.180313443500796 0.9363144124867094
H 1.536817641356661 -2.4870480070899417 1.4384416646080473
H 3.0779968693839694 -2.816430444165797 0.6108783488951518
H 1.9050460438165508 -3.0849807408954084 -1.523161587985167
H -0.6186465756521692 -1.8442627192969112 -2.0543546931988703
H -0.4048458803668023 0.6927647030906401 -2.599493988795538
H -2.766615480417574 1.1159324030172826 -1.6223970225890632
H -2.67213834970309 -0.5562583158890428 1.7745787567061648
H -3.2185955418625136 -3.0288441328374676 1.2780518432007941
H -4.27882679714446 -2.225608870327402 0.05643267792294419
H -2.6022854542810836 -2.7945083966474313 -0.3669469538122127
H -0.7029406631676384 3.1869528761250656 -1.0046140799726453
H 0.20433401661319578 4.897295729546876 1.0648742054000464
H 1.7189862025982643 4.413165177364761 1.880665013328723
H 1.8040815495693998 4.951360280532299 0.16582471155267867
H 2.5762814026919343 1.9463882685901543 1.5506782354134523
H 2.416615959445626 -0.7563324948851455 0.8097935128240252
