25

C 4.983551755554118 0.5494834914319244 -0.48187128276665103
C 3.837084109628205 -0.3981893148533558 -0.670393157811199
C 2.5733939288133274 0.2545363788584002 -0.1663441574843793
C 1.4278597849671553 -0.40973253126612597 -0.16992483325893382
C 0.21665048486157323 0.24930650528169168 0.3254392914346737
C -0.9434742778041724 -0.6871797713331819 0.5252957164003937
C -1.3658047782254088 -1.3751824882864876 -0.6865310071010651
C -2.607096936978703 -1.003654812753461 -0.9273652466977562
C -3.0780703121461257 -0.06911211500252094 0.08223879539525583
C -4.453099363665945 0.5489432588557223 0.10194249674143664
C -2.1059606987543695 0.12621223268947224 0.9454980495493444
H 5.918306825556228 0.05781009922608293 -0.8305290022963275
H 4.854202828686822 1.5137504901353387 -0.9681112076125881
H 5.167068732821285 0.7712787788048366 0.6099511471491518
H 3.9873738079703704 -1.2817854624789597 -0.016708494764023862
H 2.600478741887121 1.2708406757697925 0.2005656619791802
H -0.11774061752058536 1.0818463958119564 -0.3254209194475093
H 0.45366900800695603 0.6842025385806143 1.3269319929938836
H -0.7435624891814467 -1.4119143387567548 1.3398511931041295
H -0.8243645590010302 -2.063835287482488 -1.3120516059938456
H -3.236639357658654 -1.3407439024524948 -1.7785984816907916
H -4.7151702638833095 0.8634673427777343 1.1157705403796605
H -5.216399561853061 -0.15565499601118882 -0.2740159074249038
H -4.4677743618863754 1.4551757075206475 -0.5592925413421805
H -2.1444824301935284 0.7701311249326988 1.8153996502591472
