20

C 3.523128171540999 0.8612151065317126 -0.012611813325501764
C 2.1569733052395565 1.0144069858621985 -0.6249825368167132
C 1.3185163366840522 -0.17595176656176373 -0.27197983253023694
C 0.08794784248564574 -0.5997639292356385 -0.033949522628893794
C -1.3591981955554868 -0.3049009673707197 0.07808599201716515
C -2.284959608461913 -1.1926392192954363 0.3775553884086402
C -3.6030997960336983 -0.5319731526626789 0.39662520263822565
C -3.295168834549519 0.8674785589083749 0.0633319686479061
C -2.000502651422202 0.9801553337870766 -0.11657480427290749
C 1.1959407739169905 -1.5586732689724179 0.035441970739360625
H 3.9616001824523024 1.8942789546743195 0.09443439108116838
H 4.185693731633132 0.2543044036098487 -0.6743743527797795
H 3.512206067769058 0.39977335393984365 0.9794827142404295
H 1.687259926573412 1.9579857671118632 -0.284552261909744
H -2.137855050454733 -2.2443398581585163 0.5824050989504013
H -4.179535913091334 -0.9500923403759258 -0.4727872703914419
H -4.026696652151463 1.701547905578766 -0.025012864265204913
H -1.4583089581836741 1.9128561196888625 -0.3793282073210132
H 1.349417565224419 -1.9873984923951535 1.0584958181287192
H 1.366641756384466 -2.298269494664665 -0.7697050786105821
