17

C -2.4350651305035917 -0.31444693933919904 0.04407363589146582
C -1.3667056774081094 0.6376100493095926 0.49596831471123093
C -0.15340349204827877 0.4474316092966456 -0.3940659895639105
C 0.29881072680359305 -0.9677149167987735 -0.2519620294052126
C 1.809828968132252 -0.815464312007914 -0.372878123117666
C 2.0587328036612167 0.5730891142415584 0.10540986790801134
C 0.9456616905338504 1.2892293691663463 0.09375320071403881
H -3.3260056707679033 -0.3075158503738064 0.6985413863264333
H -2.0801639899807842 -1.362192748479978 -0.02781396455110475
H -2.7118163077161546 -0.004517809858594367 -0.9973977559630421
H -1.1110986087951573 0.5827957021233209 1.5509833179132457
H -0.36884205563979444 0.7354565000906675 -1.4456952904621285
H 0.1024854232844103 -1.2715625835504378 0.8115943922413847
H 2.3027699640906616 -1.5571470075104359 0.2828166609190151
H 2.126294517815038 -0.9268733826642048 -1.4108487977340625
H 3.029369109314584 0.9266404374253435 0.4159821346398072
H 0.8791477292242571 2.3351827689298785 0.40153903953251235
