14

C -2.190870539855397 0.25778427434449347 0.14337434249889996
C -0.7410260485013249 0.4227923635058758 0.4520074623544604
C 0.04346016146746114 -0.8107429097430346 0.35958925730515096
C 1.2755921742832297 -0.8713781721795354 -0.13255125385163735
C 1.90697965480873 0.3947444652346056 -0.6245594276810633
H -2.7554537445022147 1.083801411804412 0.6155688391626171
H -2.5118564669963868 -0.7333435898688073 0.5175827077635476
H -2.422563052298118 0.2879043484327422 -0.9430573771330422
H -0.2656210948265443 1.304896044941347 0.028338340193975624
H -0.3837817158522743 -1.7432055063540397 0.7065328626214988
H 1.8452719463990246 -1.775411030304667 -0.19810926987936628
H 3.007492127365332 0.2609289536456634 -0.7431645530102444
H 1.773508823766902 1.2325599272571006 0.09256049306312746
H 1.4188677747415246 0.6886694192838351 -1.5854647297434714
