22

C 4.657602153573258 -0.06773781296015824 0.13301276330886885
C 3.931958064515642 0.5432041059995923 -1.0682038704770909
C 2.698768975778194 1.1578819572199441 -0.5537713398332905
C 1.7860498031005525 0.41750488435651745 -0.016750634523534726
C 0.9214275663943083 -0.4330554674860722 0.4509274325599163
C -0.12813785798432148 -1.1544636760700042 0.7826209200250411
C -1.3750042795934807 -1.1140076361980071 0.06381946186635654
C -2.1773505472744614 -0.09676487471198938 0.2185542648733139
C -3.4773216728711436 0.007300551960539784 -0.4923253313809405
C -4.444250933837966 0.7257429719584019 0.4380327291462631
H 4.428619585781969 0.5623105762698528 1.0416595644662614
H 4.2484473076908404 -1.063030127404516 0.34693175768355927
H 5.722603544275604 -0.035419814415619866 -0.10011132170431652
H 3.6207759870475 -0.30052446785168674 -1.734661809612754
H 2.551743447706582 2.2153866343206565 -0.6211113806709978
H -0.02639848431872998 -1.8065432220927125 1.6457351614141136
H -1.6397973580725056 -1.9086856651045931 -0.5890681030171272
H -3.8756544145680913 -0.982537333989717 -0.7413230624707908
H -3.3755402014866736 0.5784237159378268 -1.4581477737818567
H -5.013037879292368 1.471452838194143 -0.15529016909115065
H -5.152211022955317 0.004481246819310242 0.8750796523402494
H -3.8832917836092937 1.2790806152483116 1.2311339454725405
