21

C 2.923578932626814 0.006947274340638232 0.5899254914815649
C 1.7214667224122209 0.08184630244532304 -0.30928516163444103
C 0.42024737134158013 -0.06904609355922434 0.42563712748204796
C -0.6896975781496074 0.029633226222552038 -0.6243495827699469
C -0.6419214977228629 1.3639271238920538 -1.335113387272388
C -2.057050040394084 -0.10498935366452868 3.710536157151346e-05
C -2.179564926221382 -1.4359294946911827 0.6873769984773898
H 3.6810012833678467 -0.6272001980629541 0.05199587250658782
H 2.6332528917144584 -0.4590972186265569 1.533028164667345
H 3.3269525671870745 1.0209877611421851 0.7802809470034812
H 1.7403833984625312 0.9692296570503629 -0.9751177962077009
H 0.2718698222724789 0.6588377782979158 1.2360542498149674
H 0.3832291868995055 -1.0711105900054785 0.8693376310680031
H -0.5607222907457858 -0.7550035707767315 -1.3967015270274679
H -1.663757216321926 1.5495901578674809 -1.7324237170240249
H 0.0326902432001142 1.2796695953002468 -2.21922541603631
H -0.342090281265175 2.1889597675654384 -0.6613440750496861
H -2.3018696079319367 0.7109195574071581 0.6790344533980825
H -3.1513312530592787 -1.88464310251721 0.3306666241820673
H -2.1539778962502942 -1.35145331470166 1.7913712802771236
H -1.3926898314224654 -2.102075264925806 0.2788147173016002
