19

C 2.516400663476088 1.2504508413889315 0.21480675251864792
C 2.294331169584327 -0.17224338990399404 -0.24500811150091675
C 0.8063647609387753 -0.4206039337106758 -0.11795519774244462
C -0.14771997142779397 0.4861430443320394 -0.11377939451914651
C -1.4572763546329512 -0.12678316719495547 0.026627889720166387
C -2.771042848335149 0.5671938881489407 0.07259440098475373
C -1.2778987236294703 -1.4264342308231202 0.10770784781654667
C 0.15633417459640014 -1.7340433869437661 0.024893527705917493
H 2.089521818854757 1.9765177862915395 -0.5251284366499694
H 1.9989547362297728 1.3441105152810806 1.2026355884678028
H 3.618296172706106 1.4088262003424994 0.30957232897265297
H 2.601344296493997 -0.22367923331900594 -1.3095882003567578
H 0.07507255731260522 1.557537494381574 -0.20776269282244045
H -3.4149476103386185 0.29312398945173307 -0.8085220676939798
H -3.3250064910734856 0.37052460954233135 1.0069200503798976
H -2.6338131762606007 1.6695319374283497 0.019745942092830482
H -2.0415744838799346 -2.2127685830724753 0.22070485826984318
H 0.4089958118403932 -2.384141866197034 -0.8424468964782
H 0.5036634975447722 -2.223262515423966 0.9639818108347488
