27

C 5.216455306275397 0.46083090833838936 0.01255245060765092
C 4.150059199675738 -0.4105660793839911 0.6714671448572878
C 2.9034538264450487 0.34515700772427543 0.6784594569693534
C 1.9378571590334013 -0.12035652423146671 -0.07470255798340864
C 1.0005056131291659 -0.7313285166950132 -0.7816587107621055
C 0.23024478584588734 -1.6969153951472629 -0.0864788077278121
C -1.009430011559419 -1.5265476203504587 0.24948652824198655
C -1.814127733568914 -0.36240803663220134 -0.011151233721618865
C -3.0728111276880474 -0.19037179891854053 0.33447278452007057
C -3.8950040863246485 -1.181139888135196 1.0642009323315798
C -3.5526758374084206 1.1000299298175176 -0.09309876904857789
C -2.5851014764254914 1.734106465295614 -0.7096065180840011
C -1.3818509737467601 0.8549706646930552 -0.715321660339985
H 5.851865422483291 -0.13638846838874205 -0.6464688089254177
H 5.835266630707414 0.9770047704159008 0.7493788542831676
H 4.7257577291882535 1.2516997396727445 -0.6062609510308358
H 4.457625083256863 -0.6585511261379249 1.7221019228192012
H 2.6436115558263245 1.2211684701929433 1.2002047839572827
H 0.976954756699245 -0.39773108370807464 -1.7842873866001163
H -1.4801669089600722 -2.364694965130952 0.7872808136546454
H -4.792561029365853 -0.7258622378534606 1.4899653307788425
H -4.241360098964306 -2.0038617915028865 0.3743731563561967
H -3.262708381400589 -1.611781670271628 1.8653028909032365
H -4.546690869412491 1.5210077571125658 0.050240442101889785
H -2.5927633272082065 2.716407149660255 -1.155230330077449
H -1.175669228428907 0.5813539221810654 -1.7722579746978597
H -0.5267359781042096 1.3547684173836072 -0.24229538631157235
