20

C 2.973013921461604 0.36021896836908535 0.12041489635501962
C 1.7704547208160197 -0.5222305158998581 -0.026813057737673174
C 0.49673523477427584 0.21132626685093536 -0.08294799203508578
C -0.6377493046086806 -0.4630497515054509 0.05941252912261809
C -0.6266128615803862 -1.9349564219661717 0.2722174061415362
C -1.9728054781251079 0.1986225103577727 0.016098893579988876
C -1.8394381136782574 1.682853924165284 -0.20419997523617497
H 3.878182387193769 -0.2614844992506808 -0.14143652726665834
H 3.0769939979113428 0.6078165781793797 1.2047902449530978
H 2.9752933483441666 1.2363431059374477 -0.5294511645843506
H 1.8716601562538366 -1.3214591206484183 -0.7614561517803755
H 0.5333178433699038 1.2767467166356987 -0.23876854281606763
H -1.4229090575124594 -2.3542862193828658 -0.4050986619564938
H 0.30950471401302315 -2.407409839936238 -0.020882112145482315
H -0.8906604220512093 -2.1507771687554023 1.3409630433558144
H -2.4521217745518076 0.01655167417894003 1.0003142452971747
H -2.5668078720483054 -0.28411621003455506 -0.7851994656547059
H -2.850042998685414 2.1395624762565326 -0.01121907154201814
H -1.4707048555838176 1.8942168684134757 -1.2186470458265377
H -1.1553035857125 2.075510658035099 0.5819835344129113
