19

C 2.288910089725327 0.10914270894003981 -0.7551943152769761
C 0.7938497316572173 0.23204893512385424 -0.977309148289909
C 0.08792041451813604 0.4643708739847136 0.3577416998357972
C 0.33574035059424884 -0.6647486424907845 1.292655128237114
C -1.3499503325271596 0.7989297614960167 0.14224351962585977
C -2.139083096163286 -0.24450046318016988 -0.5599813860476255
H 2.8592966243743207 0.8217718175211476 -1.4149533639808347
H 2.6412332827483027 -0.9378443116734011 -0.881443320386844
H 2.507836466975599 0.47016454938212476 0.28634967280460855
H 0.44859553065874247 -0.7588434718832482 -1.37805918335766
H 0.5769946259155602 1.375872931603469 0.7912212775582383
H 0.7845767297183625 -0.3305319213157567 2.257873838041388
H 1.1076086947318597 -1.3493270240227018 0.8390149266413564
H -0.5261611019359522 -1.2835312088823574 1.530546144512702
H -1.3880838875303516 1.7603133816566061 -0.4321470927574598
H -1.8107372365034564 0.997395771946552 1.1228430071234017
H -2.475926112704417 -1.025051890658304 0.15723774492774503
H -3.0873376224680538 0.2456707684679249 -0.9303587697507077
H -1.655283151784961 -0.681302566015692 -1.4482803794601857
