41

C -5.882424260878664 2.1938515279953656 -0.6463056947892631
C -6.006053660245039 1.3241785607501655 0.5811648786760178
C -5.464873040245946 -0.017903878171367404 0.3098017431381809
C -6.413326541372263 -1.1791798250375645 0.25190608191645225
C -4.162097007654772 -0.19528152704570995 0.12019866208377182
C -3.5483419275831265 -1.506018891910018 -0.15547140515686528
C -2.720847996243084 -2.027464533501403 0.9196930909101444
C -1.42207610421652 -1.8127962575360375 0.8166629723048022
C -0.1691606705528707 -1.4600561209523113 0.6616655787899612
C 0.19349747197661782 -0.18407846311636297 1.2252717750638742
C 0.840910979002686 0.7583572031341109 0.590088495459383
C 1.2901557073121064 0.6624471157626197 -0.7723491020731786
C 2.592428113621112 0.6629435037305526 -0.9306714915407779
C 3.9089607927482075 0.6894878427677509 -0.9732707710444662
C 4.488321366091955 2.016368005373807 -1.086149817774746
C 4.522542250664259 -0.5877231038287516 -0.8985039417021895
C 5.531855378389005 -0.7000038103482494 -0.06628632263200464
C 6.605326836611141 -0.68752388759221 0.7078675296717803
C 7.8533360835324615 -0.315440237050056 0.06204096422846102
H -4.790862985347061 2.432950966488983 -0.7489101435567107
H -6.493766208377735 3.115448720980055 -0.5346220644594439
H -6.2038194986115105 1.5827763336977585 -1.520335072982356
H -5.589179547095487 1.8145727510149692 1.4667700302115312
H -7.388199282557531 -0.8938987310542665 0.6690315561267782
H -6.035577945682232 -2.021569397218183 0.8982023097939774
H -6.566074072488382 -1.5057096516953006 -0.790478288758342
H -3.024956469360893 -1.4726276352891985 -1.1254621283434294
H -4.4019755361004425 -2.2300598292040026 -0.3057892714762548
H -2.983030851348098 -2.5589494681717806 1.7889721588301708
H 0.41149122225571577 -2.1624821428185568 0.13936571933817166
H -0.09994052553327498 -0.008061065254351399 2.2545108403539005
H 1.0614923654736765 1.6794960473952019 1.1112089995122598
H 0.7703904126577835 0.5913977121862063 -1.6751828049415516
H 5.5832721724801795 2.019336148072055 -1.3007446611569846
H 4.00549428238699 2.5928523883333927 -1.8975072206873174
H 4.350501557168793 2.5702105390897967 -0.12534234290626511
H 4.302888735396933 -1.494581238177809 -1.4137367911177778
H 6.39031487199061 -0.9551056746021865 1.703997439107556
H 8.221707082149274 -1.1932632083607233 -0.5301725668226374
H 8.667016712257748 -0.10695559962452894 0.8094145645151689
H 7.774679737333918 0.5700588107898614 -0.6191712803714979
