19

C -3.267367083420175 0.17359782573000762 -0.3982963832544821
C -1.7871078368100402 0.2520299679587884 -0.6357801428799235
C -1.069234195368615 -0.47737436957038293 0.4886310360395562
C 0.43079139317900045 -0.43211991152338597 0.3034149032309036
C 0.9506178958604173 0.9443970631170907 0.28219804024038714
C 2.2161466314319402 1.1484274902714358 -0.03460265658106258
C 3.1873168075941902 0.09748698172064375 -0.37944560944425193
H -3.731892459759443 -0.6554772316574511 -0.9944953760858825
H -3.717914339879435 1.1520262807398842 -0.6555065856020115
H -3.473554926056912 -0.04860064776775266 0.6791224606765606
H -1.514235975613319 -0.24698730464571225 -1.6036000669575126
H -1.369230882828616 -1.5485932213892462 0.406433506192132
H -1.4085416462203748 -0.08588277139047003 1.4500535468747837
H 0.8978373094398856 -0.9697284346888921 1.1348366768849292
H 0.6430519258313672 -0.8942774876598698 -0.6815995339219085
H 2.5627011501838335 2.1767970312430314 -0.03944232255967386
H 3.7487821835983586 0.3322454051720753 -1.3280033457019835
H 2.7316175499820514 -0.8985064059094048 -0.5137076459772516
H 3.97021649885595 -0.019460259750360767 0.4202237906555095
