24

C 3.272147689015477 1.1934344355887534 0.8223699611767569
C 2.3414400258513424 0.3732068127600916 -0.01301987261775713
C 0.9245447915649868 0.6224688751673572 0.25631598382762294
C 0.0031865117810353292 -0.06091857878676622 -0.36184481712365885
C 0.36297793876304824 -1.086499511817871 -1.3331514629003847
C 0.8801582946016039 -2.361456525426085 -0.7269516194450124
C -1.4174260491676332 0.2126651503055727 -0.06954072137162615
C -2.5168025689254687 -0.3097979904474467 -0.5322703320212054
C -3.389503638635049 0.5250710109414418 0.2729998856239724
C -2.1592591929911324 1.1180154701276854 0.7986683246225812
H 3.800327405351795 0.5063955471936202 1.5177173614623254
H 2.7370504723925415 1.9732698295819018 1.4213376803460827
H 4.047275414742031 1.6411137844238366 0.16497819963029042
H 2.599026675348952 0.3675131702130053 -1.0890841984316684
H 0.6470793836467149 1.3789787054745672 0.9730852995582681
H -0.3408134007119004 -1.2332541031871362 -2.1524995332222647
H 0.058531686097926826 -2.9293390337851712 -0.24359812551707596
H 1.6907862078833973 -2.122785774847457 -0.03239021962087784
H 1.27837308991201 -2.9764477500862427 -1.5850896933653744
H -2.708397238298078 -1.107310186910069 -1.2758321980831968
H -4.033248311396983 1.2482444752460475 -0.30032932926378836
H -3.992790666024224 -0.10702029079779421 0.974234131596364
H -2.01718467360756 2.2055227070306733 0.6152876550671441
H -2.0674798471941638 0.9289297720370779 1.898607640073428
