22

C 3.371377284016929 0.24060715045668338 0.14713224404276115
C 2.524354034965639 -0.539835500332942 -0.8650265177715357
C 1.1707557758663873 0.1610856039734597 -0.9358338247042658
C 0.5852051061778191 0.10351434968498142 0.47962542604019925
C -0.7315559213749648 0.7621440854339272 0.5040642948686934
C -1.893130677893058 0.18378171030458654 0.3702970301745485
C -2.0986132505730906 -1.2695074824668764 0.16563091143385061
C -3.1098622704670635 1.0512462754013976 0.4275847532663275
H 3.290640161246904 -0.23674325905529528 1.1476620255578924
H 3.0212480418169214 1.2913188428446325 0.1376267718677641
H 4.4155211432567825 0.24008419181578186 -0.24440852410868247
H 2.3965496713965218 -1.572000360561588 -0.48173925729425254
H 1.289600827614775 1.2371191897878395 -1.1608426376676295
H 0.5482375323995002 -0.353423688926899 -1.6677472781772604
H 1.2675275837690139 0.7191235947627682 1.1079830954097927
H 0.573259453099886 -0.9463163047187949 0.7861269061924332
H -1.2842263260205986 -1.8758486519578401 0.6133297356156643
H -2.2188370763983474 -1.5140029934883157 -0.9260007340584872
H -3.0415140617713265 -1.5899142267826236 0.6547948861880921
H -3.026533562672148 1.7511838505835613 -0.4375969185717119
H -3.008168896436027 1.6708367264436865 1.3414759593887744
H -4.041834572019407 0.48554689679791546 0.38232256817294635
