25

C 2.717127164833564 1.6989768805795065 0.291044541049311
C 3.0677714164183314 0.5280299346861679 -0.5987214953848239
C 2.302691105852785 -0.6424188391631149 -0.14153210588907958
C 0.9917210353829389 -0.5638440678013126 -0.0792435827815086
C 0.24643182802572608 -1.720030713003339 0.37145549154381363
C -1.0624060423029424 -1.6687395389787163 0.4435929695214253
C -1.746909798079782 -0.40846404404884173 0.05507852663165364
C -1.8120399070386244 -0.14150924177006138 -1.4305492401817015
C -1.5429796839113568 0.7278546515941409 1.0194238501440458
C -2.8692493410858373 0.114351495908655 0.8701941720552105
H 3.6218837164248585 2.3260054624229065 0.43646945014203997
H 2.299450232922523 1.3193752964462016 1.2284697262396989
H 1.9167236016855105 2.2809451796703497 -0.2512348248185049
H 4.148416770692744 0.3267283114623389 -0.5176007407555517
H 2.7958817402102256 -1.5440314862247657 0.13696394124528236
H 0.4636886414881931 0.35259071953533644 -0.3599810372486701
H 0.7533783798225947 -2.625099910623463 0.6491838951499264
H -1.6555561459177144 -2.539851693714504 0.7853110746666926
H -1.0146491842523446 -0.7125906390439748 -1.9173308038166013
H -2.788064811096269 -0.4517961760949591 -1.8096740115333776
H -1.623885859122486 0.9529040796701096 -1.5911783595799425
H -1.2887699326552298 1.7057476077362697 0.5572881662688914
H -0.9948787569388443 0.5429184697172259 1.968198453500649
H -3.2441993776634046 -0.5155811466819784 1.7020247175182928
H -3.6815767936926536 0.6575294076942354 0.3316905654415218
