23

C 4.023771223439109 -0.4207616409122038 0.34910119942661794
C 3.70808016297243 0.9661714879607131 0.832424241570907
C 2.5107039284264068 1.5340811577264721 0.2269704018506102
C 1.571781780973106 0.6814568328544329 -0.12188465440631437
C 0.6677154673731011 -0.2321875679551434 -0.34401843978145175
C -0.2232920510195226 -0.5238059645188545 0.7187059172107074
C -1.514051160352607 -0.3988560435644873 0.4427067332799038
C -2.7481438463398766 -0.286865006405837 0.02576287476235222
C -3.3104383028364683 1.0378344918562783 0.20159234193502765
C -3.3469989053812927 -1.4824286720296103 -0.5385807754389664
H 4.01523382396885 -0.48742144112981256 -0.7493640258377189
H 3.3030701971858916 -1.1096075459251444 0.8304495672410602
H 5.029630672838246 -0.708589914757003 0.7515975510500276
H 4.581357306031293 1.6174091260381414 0.541212631082407
H 2.269872929548459 2.5380252323262567 0.02037288339978483
H 0.7250058861363524 -0.6526961412622987 -1.332385256960858
H -0.07342139191418351 -0.8287621690929518 1.7140783864068345
H -2.8827249190163258 1.820280028446848 -0.47572246600474727
H -3.1801273940175285 1.353399352988974 1.2755939125290459
H -4.428643831496378 0.97703731100602 0.06656610774133244
H -2.6417687955418026 -2.1614320471980375 -1.0295588035019643
H -4.112772490655655 -1.1520676883452203 -1.300735829878342
H -3.9438402903211225 -2.080213178107624 0.2023035618131627
