21

C 3.729807537203743 -0.012976758248333137 0.028617034763027214
C 2.456515341037595 -0.8391798058146057 0.15781909074102438
C 1.3535946558392038 0.10954940757432464 0.44384002404388057
C 0.19916106302591835 0.010388157959685068 -0.06162480827502519
C -0.6295767911136759 -0.8906419498597723 -1.0358030317926605
C -1.6525311417016184 -0.6847031277239713 0.002500152772825352
C -3.030274842519569 -0.4203180667882367 -0.018444332314385026
C -3.3219853493407894 0.8866044535034897 0.04069549698148525
C -2.0379194877675397 1.5868062903032008 0.07079925641210483
C -1.0521723138393773 0.749752987335162 0.0037983538922151954
H 3.5916895894616077 1.0104140389859917 0.4846791784624047
H 4.00161070315579 0.035412208994272096 -1.0348921325663463
H 4.569797631115695 -0.4817011356870418 0.6037700422958892
H 2.591204798023771 -1.4503926710856894 1.0933363327249837
H 1.5906286841936996 0.9221805069805667 1.131464718785269
H -0.7722603859840677 -0.28481497004587564 -1.9293655386242463
H -0.1717204460133567 -1.8767365920768395 -1.130038312996459
H -1.3009362491302678 -1.161925122093703 1.0225313052771459
H -3.8410875769498865 -1.1621976497153514 -0.07643786940650804
H -4.324832936154667 1.2825153832583267 0.05967134817352376
H -1.9487124825423638 2.671964414244395 0.14308369064987222
