17

C 2.1280729981693076 1.3801882066129614 0.33054327161356317
C 2.496752984384936 -0.0017786212939774274 -0.10180379468894221
C 1.350916680026178 -0.9397932785968006 -0.09514234502634197
C 0.11203418496772383 -0.5619941639540913 0.013676978497066086
C -1.0426535052674064 -1.4223417278675832 0.026580529033215887
C -2.235277857484086 -0.8453775339748296 0.14693249097185104
C -2.4079497324564927 0.6117696229708682 0.26466607970717165
H 2.391111044835686 2.1592360969316604 -0.43416716658307775
H 1.0283518630314399 1.4972970924007267 0.48992043214260733
H 2.6859352697057397 1.6177818855199269 1.2541533947990806
H 3.2995404250118545 -0.4322689189915162 0.5299820628661962
H 1.572123156473643 -1.9912059093136292 -0.18640922118214812
H -0.9631618586719725 -2.498113182816857 -0.05719182327739094
H -3.1129127358969115 -1.4755340442016192 0.15849389232065345
H -2.1479314105520113 0.9123508947189133 1.302969175827426
H -3.4356358766491573 0.906447703577302 -0.005578562577651222
H -1.7193156296282623 1.0833358782786149 -0.4864650740353757
