19

C 2.653225407286197 -0.08036616054104 0.05893525688203053
C 1.4317961176156682 -0.8089136968370925 -0.40126813885676016
C 0.2352568722471061 0.06905026941318662 -0.19475828943302168
C -0.9610815457606863 -0.42425899709559417 0.09386148811819683
C -1.3299780111044013 -1.8538299226899817 0.25940789306668116
C -1.8966524256515638 0.70277199221749 0.22892229195351993
C -1.0328747802947091 1.8860859633024776 -0.029008146105490615
C 0.1967733877724697 1.5091058926117984 -0.2726966469122267
H 3.1512087718971595 0.48254865006678616 -0.7523668222030477
H 3.335067887083827 -0.7763506614802246 0.5928583447443502
H 2.3375388461654243 0.6722408219954019 0.8112108943942514
H 1.439541713911259 -1.104890274116774 -1.4557755411788467
H -2.180064954112412 -1.9965985405717863 0.9448805581106772
H -1.5568048807502093 -2.24944746010527 -0.7672937448036983
H -0.43938602992821524 -2.420978482248344 0.6021723755291609
H -2.26988648523133 0.7036554042269386 1.2855265936494011
H -2.71433797280765 0.6397319935090489 -0.5091655393875152
H -1.4275749654238243 2.897519658290125 -0.004107033401735958
H 1.0282330470859096 2.1529235500528663 -0.49133579416593764
