18

C -2.97951261186171 -0.6601986679461717 -0.03747864531717075
C -1.52137158520106 -0.5408921564457466 0.2921502835062362
C -0.7745090055118983 0.34028364508749664 -0.6812110977686759
C 0.6615763934791206 0.348305753312375 -0.20409293587465052
C 1.7048982086833406 -0.05981061307528592 -0.8909736821004633
C 2.9169851332643777 0.0976201798404237 -0.11207438755871889
C 2.5998830892762794 0.6068961247496351 1.0585562784376092
C 1.143927503347806 0.8134169146800895 1.1107116385498095
H -3.364259254932352 0.12915939378472746 -0.6888567290174291
H -3.552408297405174 -0.6984858794187264 0.9014733245589625
H -3.123281680390754 -1.6369289895574837 -0.5547326501127524
H -1.3270067549655282 -0.2811851689077683 1.3471184202301136
H -1.2089398100814766 1.3469169909843166 -0.659890844480791
H -0.7812468723407602 -0.1434843094267006 -1.6655467420085572
H 1.6164251300681511 -0.4588781556214453 -1.915847884094602
H 3.8982282053437824 -0.17510139915274317 -0.4806846523812317
H 3.342639560848417 0.8300073562433811 1.8521444599800736
H 0.747972648379414 0.14235898086967613 1.9105915611641686
