20

C 3.251537510637936 0.36885280972009993 -0.41015305251724
C 2.7358406189574254 -0.9074804735761609 0.2165259837490453
C 1.2613343663293013 -1.005411983319495 0.1557925570183208
C 0.01277385408196293 -0.4723967291943316 0.11396852526249363
C -0.8362658545589464 0.7176991220603139 0.09842945066223094
C -1.781460336281405 0.8113942624882221 1.2213651704972537
C -2.9825345205723046 0.9715830592554655 0.722473104505791
C -2.91586067495529 0.9947595206010046 -0.7516836678007137
C -1.6607805395515276 0.8465986076452463 -1.1308866366199577
C 0.11487306595950403 -1.956499563125806 0.09490649124399869
H 2.483257595754082 1.1455435432391703 -0.5115074264167567
H 3.64566670063736 0.10054308295576993 -1.4175635507381716
H 4.119706933665233 0.697012533486942 0.20640334442650907
H 3.1574771961971244 -1.105885860062703 1.212987520608745
H -1.528044281255554 0.7578360602009948 2.25217507360757
H -3.884535437717914 1.0711770080583944 1.3174761420883323
H -3.785031791215664 1.117031683880206 -1.4104424053254585
H -1.2698709140477737 0.8190496388438232 -2.119476088811156
H -0.031072640379859035 -2.530152736682331 1.0286717088507977
H -0.10701085168721063 -2.4412535864773495 -0.8894622442921913
