22

C -2.8739936907525894 1.889266811208642 -0.5236680604375532
C -1.5896850266182787 1.1713197268295343 -0.7686153967538131
C -1.4921774546413415 -0.024204318753900684 0.08998802360723311
C -0.3801873567892512 -0.7445103946152635 0.2099360944619746
C -0.3951359208061074 -1.9305126590394284 1.1039791798464207
C 0.8637876162271032 -0.4090608623272151 -0.5123496185945282
C 1.9478446483741951 -0.15126565374350046 0.5155732835924298
C 3.259593694871515 0.20081645122825972 -0.1516278149368753
H -2.8131835130100207 2.98668958098142 -0.7502953811753695
H -3.2345222724925873 1.7009705420201653 0.5055701497788267
H -3.6447093052512147 1.46763532451349 -1.2178856791227592
H -0.6975588239904178 1.8255993480598958 -0.7004353280017942
H -2.3941362875901846 -0.3118970195624795 0.6446021376948715
H -0.8431711645548792 -1.6601304346334491 2.0862648807331987
H -1.1315367902587958 -2.64906367742757 0.643740810943378
H 0.5709258622472705 -2.4320104179511626 1.1729027240023984
H 0.7174118080394206 0.4477027805702016 -1.1925162820689377
H 1.228031348382829 -1.2447699732738418 -1.1418486804106671
H 2.1103019965932273 -1.099100902356865 1.0600679594860403
H 3.935068897384658 -0.6754351354386005 -0.2295674101817573
H 3.7667874178865883 0.9307344542050577 0.5334170225786886
H 3.090244316748835 0.7112264295065561 -1.1194210712695625
