19

C -4.134240914930921 0.6145209076813402 0.08185703060359219
C -4.312039053163138 -0.8777043940545937 -0.2200932146393581
C -3.0219736094797947 -1.530820026572978 0.1105295960758531
C -1.9290699272835419 -0.8557865949451878 0.3759670475650461
C -0.7836138655196059 -0.2757113196918532 0.18669281272412722
C 0.32648673642829557 0.26873031324344887 -0.18647265252266032
C 1.554760065479569 0.5928464374467131 -0.40952620318138394
C 2.838494115168015 0.5873814568690688 -0.6150250576946892
C 4.141656273966137 0.5917784763466657 -0.6654323573641178
C 4.9809401389862025 0.25425001982906215 0.5142481187515926
H -3.8276766002727367 0.7025662097656599 1.1402078277102163
H -5.076513082905195 1.1330484998544763 -0.12075915891992534
H -3.292395895106045 1.030548588080867 -0.5321091064268518
H -4.482374793039234 -1.0252957045495146 -1.3045486471000054
H -3.020525379843453 -2.624187531156437 0.12394980114188726
H 4.614519179798233 0.8507441811509159 -1.6001918012494403
H 4.572924666916135 -0.6984258149420105 0.9399313241598105
H 6.023429335096639 0.15745172857941275 0.21376058657842964
H 4.82721260970467 1.104064567064982 1.242344930044573
