19

C 3.4593783447115483 0.4335175090573595 -0.443912075137843
C 2.609249612882928 0.03466162773991755 0.7304149452948688
C 1.2946904305362037 -0.5088379373101684 0.2479130546709808
C -0.008999704210514683 -0.2983860924547723 0.12557358778356045
C -1.2133616663356237 0.4948207747493581 0.2971240333112941
C -2.4017242276162816 0.09174389080403039 -0.09713192335607691
C -3.639395750995739 0.8602466498722501 0.05698158346590393
C 0.5646477841916866 -1.592875769751708 -0.39177082111211214
H 2.985559308126415 1.2504222348019896 -1.0096749345776102
H 4.447648286333136 0.7586858659958188 -0.07113372251608943
H 3.635271995331587 -0.39429658790964434 -1.1449213373586191
H 3.1159979999997267 -0.7054675809442377 1.3513337589639371
H -1.1279721267822775 1.456566915085537 0.7687590723835236
H -2.465299220307262 -0.880584021236292 -0.5700837384385337
H -4.337337184245727 0.41075167577404986 0.8072564620121091
H -3.4730791425339973 1.90352229223803 0.3872172367560535
H -4.204943640904126 0.8558429171747651 -0.905456185812366
H 0.18029750264651317 -2.458559347682879 0.20557131581361
H 0.5793713991717674 -1.7117750160034209 -1.4828933666172635
