32

C -3.4643838939951843 3.9114018411436673 0.8176650479740392
C -2.46737890822488 2.83721550203293 0.5039563516714183
C -2.948017731105864 1.4996400290907628 1.0811482667541341
C -1.9350734600348352 0.40746259352441416 0.7514454047998846
C -1.822727521451149 0.3168603337900536 -0.7302475789255958
C -0.7060065836917147 0.5443237661595937 1.498180720982603
C 0.4773847721168342 0.0891837278085194 1.3838373327485625
C 0.9840540174984311 -0.8051552581703453 0.3419374036820839
C 2.2273287931133807 -1.2227202997006539 0.3100710653033086
C 2.650389641030569 -2.12821097948803 -0.7883201116084926
C 3.7919967965067265 -1.4403539227040536 -1.5096850486716422
C 3.147245206851509 -3.442525039630987 -0.2589997502384985
H -3.1697709451515155 4.831018156650189 0.26115194132425135
H -4.4492086237805815 3.5736898910937014 0.4241936222053898
H -3.4964533480188553 4.152599155119538 1.886789999297769
H -2.2560362576389674 2.7598358198429462 -0.5615353670326948
H -3.921905808958525 1.2984000749656508 0.5952862477484221
H -3.133367074033541 1.6008110363409322 2.16287943996376
H -2.426645429411881 -0.5507202219991569 1.1211855792936731
H -1.9359817156595693 -0.7351256101071497 -1.0450935232918372
H -2.7120066579737885 0.8420608141147502 -1.1802326098672447
H -0.9121430373525112 0.7937744163782261 -1.1622428431565797
H 1.1949940674785469 0.4221232129710394 2.177158854482913
H 0.29803042768068605 -1.1223825275070956 -0.4141456016705961
H 2.9882727191933047 -0.9556698676563415 1.0344963759694739
H 1.8334583058850908 -2.3219256700796445 -1.4982879235924693
H 3.4538355072048885 -0.8554553650267924 -2.3893015446771604
H 4.318246494640994 -0.815178520482902 -0.7622294460054199
H 4.5100608919101886 -2.191969578638881 -1.8895806583672343
H 2.3940778895614265 -4.254058228307284 -0.35771604052883355
H 3.4639001837512473 -3.285677543132196 0.7916631739644622
H 4.023831282169112 -3.753271738451571 -0.8433681252391966
