19

C 2.3703580975026686 0.08348876673171407 0.4038215822876034
C 1.527946819652274 0.42237902443886083 -0.7808874179557309
C 0.24437232931779226 -0.3385172855635891 -0.8547357500038903
C -0.6606077339628378 -0.13150301785583884 0.3141014824936174
C -1.9131567532009137 -0.9814378512937274 0.0655777914410559
C -1.1207750801734484 1.2840291607255903 0.47545562168558236
H 3.035500143250156 -0.780178559740058 0.15937666263417072
H 3.082165329887786 0.944536306103745 0.5709483919072694
H 1.807753624241878 -0.06648190379227367 1.3358824599061407
H 2.118232183972632 0.17480726386799866 -1.6890628996379429
H -0.2952843498172974 -0.0018061824636609804 -1.767162812442051
H 0.40011040279347754 -1.4385907886879108 -0.9735898836243065
H -0.22449594152838273 -0.541135710600075 1.259211609216874
H -1.6149850861603765 -1.8886112292298955 -0.4841656386998639
H -2.568461275654516 -0.3914817258424004 -0.6153198598612795
H -2.4241017950282306 -1.2380977735044993 1.008675783555325
H -1.5817857728855245 1.3880949226327337 1.4928944672969862
H -1.895505171854507 1.4999880760171702 -0.2876819986639669
H -0.2872799703526998 2.000518508056146 0.36666040846441267
