37

C 0.7610536014679437 4.881199204705779 1.2890429733010502
C 0.5763016118111367 3.4179269299203163 1.0884998902439549
C 0.6640543777330085 2.594229807495979 2.3618716567881366
C -0.3978945843113825 2.9898430887405016 3.350301208188769
C -0.30130343768427226 2.1843692663090772 4.623467351858275
C 0.30967791553870133 1.1664279853150785 1.8962660742238362
C 1.297374552631316 0.7797620638189361 0.8854857697301012
C 0.9146516122810994 0.7277722551179029 -0.37971882692156134
C 0.297667088144768 0.7308499906965814 -1.526524343400769
C -0.4410482316031288 -0.45569113713891557 -1.915335672923274
C 0.08122071663800084 -1.6549432037775367 -1.9664715231955219
C -0.7440581338167092 -2.7777141875579825 -2.369427807026211
C -0.22005296660081347 -3.981069973882639 -2.418637999194835
C -0.9764979092902256 -5.196048646795439 -2.817737608169839
C -0.2600631022424026 -5.760481868561181 -4.050458057998516
H 0.6822225106560659 5.234259627958436 2.3170156405732043
H 1.8161128182450905 5.137953553160847 0.971106669483336
H 0.12159017795564232 5.492066027161127 0.5872605107804909
H 1.361420541413118 3.0172310871335646 0.39613320828776993
H 1.6841541026519846 2.5980992252916115 2.7623689034355445
H -0.37492907974501205 4.068082807516664 3.585415969341606
H -1.3986271006988282 2.806688491325825 2.891951832589704
H -1.303927597496742 1.777067359214264 4.854771552109893
H 0.41422022821762694 1.3538039103421846 4.527691696745935
H 0.04733182399174844 2.851343129469669 5.461498536178684
H 0.24075130403138256 0.48124427753507815 2.740815811415452
H -0.7347574563777894 1.2849988053279082 1.5057615154359856
H 0.35721527542640835 1.6082037602239831 -2.126023036341778
H -1.490696523908844 -0.3051157645924294 -2.170935612178627
H 1.1148112909064118 -1.7892096886936961 -1.705378490044483
H -1.7802820037977962 -2.653249938113572 -2.6321478615414486
H 0.8346005756740394 -4.149837867624529 -2.1584309076273924
H -0.8130589530023328 -5.948321589111807 -2.0075134810328774
H -2.0290830514711358 -4.999094281252863 -3.024827068530915
H -0.3844625512007792 -4.985782154220702 -4.848745791924504
H 0.8162601218594742 -5.850214091815446 -3.877806112360887
H -0.741949564072293 -6.67664826097695 -4.429948731952105
