17

C 2.3614699704042024 0.02973765849693846 0.24809866100717223
C 1.1123887253898963 -0.7596143804103768 0.5416983762540362
C 0.007772785896485131 -0.2139549983619002 -0.3152058169652851
C -1.3344731209167697 -0.9247171326141467 -0.12337564863011143
C -1.984579498684836 0.4525047191711538 -0.2969319302360926
C -0.6785060643031389 1.0308265389188545 0.26171631006500934
H 2.0932797565778274 1.0490781210593247 -0.13379142275331588
H 2.9411215508177517 -0.442855127138181 -0.5756347653124986
H 2.9811520270347858 0.20930013038518602 1.1566858852712756
H 1.2530321055602558 -1.8366467070844246 0.45380840267487027
H 0.2323989386963686 -0.061317034469456404 -1.3809663127452043
H -1.5876547609981022 -1.6492304527909123 -0.9009476649541616
H -1.4539195232526645 -1.2366951515554923 0.9202685331140534
H -2.052798227886301 0.7658518474826428 -1.3701275779293196
H -2.8677465145300953 0.6277667659703897 0.31834441728434587
H -0.3596520690696212 1.9700009761282875 -0.18897554511888032
H -0.6632860807360891 0.9899642268121153 1.3853360989741055
