13

C -1.569641823882532 0.19908505991387926 0.2830325697202826
C -0.6030169815925558 -0.9332684892525978 0.1264159413393812
C 0.6936757659134799 -0.5190681277954967 -0.5270924854342467
C 1.413098176221937 0.5401508032924347 0.2639390592316219
H -1.3563421188411937 1.0482069884333436 -0.38573188150207477
H -1.5847059496876903 0.503505706117686 1.3660941589537718
H -2.6320375686828976 -0.09864094095113682 0.06882730665342883
H -1.067046418180163 -1.7079617963433942 -0.5171024312279229
H 0.4360546560436651 -0.11069961193754917 -1.537298728192513
H 1.3582019922867417 -1.4043058552114824 -0.5995231533415883
H 0.9334312090208607 0.7431033114090281 1.2405116010584758
H 2.4721359200926614 0.2372392822661782 0.5077800657993164
H 1.506193141287677 1.5026536700591193 -0.28985202305793895
