33

C 4.794494858688898 -1.0618776499290936 -1.2470321576769074
C 4.223517719533057 -0.7054025233402229 0.10636159127493498
C 2.7657848890808183 -0.9949562546450805 0.16096599594553976
C 1.919275732817598 0.003908024673509936 0.12220020326702861
C 0.47892182268583827 -0.1736815845535857 0.16960719345001787
C -0.06412065697023484 -1.4341816058948833 0.2596038189904096
C -1.4553993569245096 -1.5951386951734077 0.30478037550768666
C -2.003936266303817 -2.799082624373024 0.39149035234957313
C -3.46446381240658 -2.9294537966990224 0.4365783807688613
C -2.2418364024613466 -0.468650016832902 0.25675402400940645
C -1.7378062272686545 0.8084782387317269 0.1667412262284733
C -0.3647020108497147 0.9291168423352937 0.12446673916599611
C -0.08250085064291324 2.232837472159169 0.038501538635354125
C -1.3043610963391388 3.0264580751803822 0.021675895428988606
C -1.3789326415248158 4.515926951959989 -0.06645006218288355
C -2.2967547852191106 2.1544952933533756 0.09964881771913504
H 4.591045207192012 -0.2903900887388211 -1.9940099127465667
H 5.891081912532314 -1.2094682120019118 -1.1952430666347698
H 4.315239442412554 -2.010610523465217 -1.623292432271994
H 4.786712282994381 -1.1824118682136469 0.9212399666725528
H 2.4972790361048918 -2.032694962653826 0.2304724257506192
H 2.314894765149121 1.0049982627156162 0.051654968035711214
H 0.5154753175673804 -2.3470902914361793 0.29998943391887284
H -1.3329314145271647 -3.649962416936606 0.4257952805142952
H -3.94602206720037 -2.3701119838591653 -0.4017087117533339
H -3.8274259619136894 -2.565435990190681 1.4356142932467737
H -3.710769220669447 -4.0170997925492395 0.39916113505634726
H -3.335945041857268 -0.5498320613195701 0.2895472523851943
H 0.9148491826992445 2.6465899704584186 -0.01189308386791907
H -2.380559857602862 4.855946724392851 -0.33555983943066053
H -0.6511079390805457 4.829180767745311 -0.857123644045318
H -1.0853215207040494 4.981547852875636 0.9078629788678321
H -3.3436750389920578 2.3980484662248047 0.11159902342078366
