26

C 3.2391079661099345 0.24702772473457876 0.4036306381464667
C 2.1011919092580977 1.070776374384413 -0.04732764959445229
C 0.8787069744801405 0.32277573064502935 -0.4577494486450698
C 1.0720403579719526 -0.6049730619970543 -1.5663119910360668
C 0.06804671555846499 -1.3277144428520788 -1.961493631547845
C -0.8806060009089611 -1.6557512521084283 -1.130590220657278
C -0.9691470357308297 -1.1756593397666129 0.24665560805673395
C -2.1417311835657413 -0.3172106030325255 0.5496965182549536
C -2.647091523623517 0.4635833725133676 -0.633359283653101
C -1.634526962069995 0.5926254148203296 1.613623532350179
C -0.3147759653086993 0.5443460222647004 1.6992954948995764
C 0.2499149886984416 -0.4113034299972154 0.6976829646324856
H 2.9045534861008404 -0.6280676306524172 0.966761336228788
H 3.929127709333474 -0.07978436447924663 -0.41656364648995414
H 3.8675594104106374 0.8590112490441054 1.103096692024786
H 2.366927956094357 1.8794752041134954 -0.727722992621721
H 0.12275719428842392 1.0871280257937486 -0.7883046878118094
H 2.013749104923449 -0.7123343966228488 -2.0676080125848713
H -1.6401099513140194 -2.326466353711528 -1.5033546252528187
H -2.954465821635117 -0.9865174191216599 0.9489119172487349
H -3.6793719648480954 0.10206180310359067 -0.8871189632787536
H -2.040360872122223 0.36463379435982807 -1.534696616854824
H -2.7915676336268174 1.5173452719758003 -0.2945262473190852
H -2.3255473842074115 1.1968177455561224 2.2116294312277605
H 0.2841977280054577 1.1045135447637315 2.384533052744776
H 0.9214207977278788 -1.1263389837313087 1.1912108315325305
