16

C 2.139842710386102 0.41857977343132136 0.15253558847206264
C 1.3455135641627676 -0.8517915365686802 0.30586509076789065
C 0.21944315864007063 -0.84528669792567 -0.6911227239107541
C -0.7239723062558214 0.2926048959338639 -0.5321849918710002
C -1.4987768242566142 0.5294100281712728 0.7012059641313135
C -2.2061829232934507 -0.13502302653443216 -0.4581072050577897
H 1.7543551497561636 1.0377365271464678 -0.6988812485225365
H 2.07029438943562 0.9874744597957785 1.0968051966479244
H 3.21251793767132 0.17740802335899858 -0.06848078882351136
H 0.9445749216628744 -1.0054787323615797 1.318549304351267
H -0.3047069122658374 -1.8263876919672102 -0.6918294814234071
H 0.6976271127537453 -0.7796743505911328 -1.704327128072343
H -0.5024157967973838 1.1835161246462007 -1.1642344761185535
H -1.8484892257356902 1.5651179992742406 0.8831894662897671
H -2.878220665032185 0.45212920174063637 -1.0992806597076479
H -2.4214042908316755 -1.2003349975500743 -0.27409029897932113
