16

C 2.815619303263913 0.21526626484994021 -0.07661414362180435
C 1.4301982357608318 -0.40227739924429373 -0.09993241219479596
C 0.5493663427295354 0.4733597914822816 0.7670794444021717
C -0.8409463628575246 -0.017354953360615676 0.8333754129654656
C -1.649051047854326 -0.15670633024733854 -0.1902693851031672
C -3.0220801921970257 -0.6620958478874122 0.026489313292143744
H 3.3289636072335367 0.06841298316895171 -1.0704940318417167
H 2.782249609896804 1.30140583351158 0.12917452322251982
H 3.450701230293274 -0.24615025472725213 0.7139084999485128
H 1.0545434119210646 -0.389119449029725 -1.1591875703739685
H 0.6235904288948778 1.5155408140408493 0.37724398794582115
H 0.9707753750944433 0.4845530436974533 1.7883053854196558
H -1.3323423140101827 0.0897036029777643 -1.185667769087811
H -3.5831149770405393 -0.7588943508750062 -0.9343312563362198
H -3.012133793211208 -1.6365633205464127 0.585387211918997
H -3.5663388579176014 0.12091957218919737 0.60386214153647
