16

C 3.0317104013772913 1.058368489544331 -0.4572722325560492
C 1.758353243394335 0.4446838154175567 -0.8654159193884806
C 0.7139367182413793 -0.07914987869528407 -1.2137735679275201
C -0.49933422077332035 -0.7145575040019626 -1.6205116982002976
C -1.517958738288499 -0.8942896968648371 -0.8778171797417066
C -1.5411916422661112 -0.44797369813863674 0.5311560912568805
C -0.970847983857404 0.1292398759893946 1.5852469322535625
C -2.294041387061606 -0.3449112403728347 1.812051125156234
H 3.4227956589184263 0.413634127504301 0.3640636671671905
H 2.8911054660471938 2.073751366891633 -0.026597824629628047
H 3.7238952736533695 1.0946029529510959 -1.3351706337355056
H -0.5704386915751407 -1.071507603966169 -2.6807937912943145
H -2.4025125114659382 -1.3880839145487698 -1.2719830827522505
H -0.06871501514693698 0.6231410884290273 1.9549541482548227
H -3.13158466308428 0.4108043047602198 1.833435202139112
H -2.5451719080641113 -1.3077524849297422 2.268428763847102
