17

C 4.246011542130679 1.0907657651020966 -0.8490983530206347
C 2.8280170286075563 0.7758330245200197 -0.6433936664349285
C 1.6673910187336105 0.4966464073108757 -0.4739874867033981
C 0.2634925078875912 0.1653428762342791 -0.24431901260677466
C -0.0830635878192722 -0.40815938073087327 0.8708853010457087
C -1.463305487844974 -0.7452350558630497 1.121125359378748
C -2.481933073617941 -0.5373508951216759 0.32274405408616763
C -3.8582127094198584 -0.9495896767576352 0.7361699987927319
H 4.6227561732346185 0.6413698383303066 -1.8042209316172857
H 4.327097285541102 2.185792367289354 -0.9326899290020135
H 4.786963237270094 0.6793776692689419 0.035746689262167855
H -0.48151330984432145 0.39549399729593937 -0.9963532561629034
H 0.6864693394336644 -0.635886614164433 1.6261191399426218
H -2.4074856864981444 -0.07519806695714809 -0.6465191156810742
H -4.441323978817979 -1.2820883727667063 -0.1528638140676858
H -4.427243078230374 -0.09047645857189297 1.1627607865528473
H -3.7841172207503746 -1.7066374244146878 1.5258572939022075
