16

C -3.729077090059149 0.9371734695463072 0.19088975061635455
C -2.382212960506883 0.445069091126142 0.4838189531341941
C -1.2762428654921405 0.02043877933901077 0.734594632886782
C 0.07716303894386824 -0.5011745201729072 1.0159727789776878
C 0.9401969996222397 -0.15126514670798014 -0.14389054058216977
C 2.2072784150399127 -0.5519482187105164 -0.14627692282489166
C 3.1229361654767454 -0.2351243999199395 -1.2756580223383336
H -4.053280264289071 0.577530080717899 -0.8274094993055867
H -3.6810010731138694 2.0597000371012406 0.1670471768823281
H -4.46114611600099 0.5766824944180847 0.9388356409301509
H 0.4704140807226649 -0.009014679233420576 1.9517842268404992
H 0.05854406895347151 -1.599978482494003 1.2016997555511224
H 2.6183984254825514 -1.1252967697383152 0.6774235067508497
H 3.8465752842529963 -1.0551259948763154 -1.4795623604168948
H 3.7281688177918912 0.6692650352741287 -0.9857365324573308
H 2.5132850731848544 -0.05693077567932682 -2.172610475304931
