24

C 4.030702214557103 1.8116614477872037 0.5960929651343898
C 3.048936050619001 1.6346749445577315 -0.3792905344708796
C 2.060594697136007 1.4482495174389756 -1.3949071305080916
C 1.2045968706752466 1.2690911655857373 -2.297681959803939
C 0.558521525111163 -0.11583469393842581 -2.4640822901631374
C -0.08096490899545736 -0.6966753848674367 -1.565659901802013
C -0.9132057631848186 -1.4369995648049725 -0.7529636777385913
C -2.022152047086176 -0.6636327368207339 -0.27866493282344124
C -1.9332504593746964 -0.1654614944432704 1.1104125258267716
C -2.3642777379759026 -0.7843025515151284 2.168093153833499
C -3.019859693922992 -2.1177564717602224 2.0859668785735024
H 4.403998190757135 3.0723610845516927 0.0028025148420712104
H 3.762250235983547 2.494420097707801 1.504393619942008
H 4.935914397385652 1.4141154349355307 0.6635968997251788
H 1.9066443069721417 1.104152182662689 -3.402364367233851
H 0.618546408995172 2.091084181908088 -2.6578631219752498
H 0.5308608666538716 -0.6856972162542577 -3.4577065574867176
H -0.5030767949422204 -2.35936592953634 -0.6173596747805317
H -2.880882048196261 -0.406305324068745 -0.8441431692383164
H -1.4674928762007564 0.863940774084434 1.1729320249031168
H -2.246231359349175 -0.29267198326808325 3.172639792190652
H -3.3173129070741925 -2.4198909666135715 1.0673947354334012
H -3.9578807863522805 -2.1506925672471686 2.7305402208027747
H -2.354978381308534 -2.9084639500288447 2.5187328556867086
