28

C -4.381967961187619 1.305983759352603 2.734105942335613
C -3.079838051816404 1.6429898718501825 2.1238635780911688
C -2.0569808059773482 1.891781907998238 1.6425300739919781
C -0.6996974775833114 2.2009636917506503 1.0058400840049377
C -0.6859364468700457 1.3890033026224606 -0.21728058251699278
C -1.6385354226895976 1.5400164729915955 -1.3173102029837453
C 0.28848182210176254 0.4534524746133413 -0.3200899774858695
C 0.3954398153619927 -0.38579729123295603 -1.4705220178220588
C 1.3142568353467938 -1.3207467792827767 -1.5900433164616319
C 2.328339112044184 -1.570935754876694 -0.5160926772950389
C 3.2048057724256718 -2.452456692077779 -0.6908898446343729
C 4.092695060627109 -3.445791433226663 -1.0330061398198491
H -4.510585487207005 1.927744874810147 3.644399434853236
H -4.388471806188543 0.22028787940161113 3.050081192685606
H -5.2047487562425445 1.4678352317650352 2.0329553761167305
H -0.6454415411618833 3.2803844366192063 0.7936101307997354
H 0.10540111707996914 1.9044998311945083 1.6672558342048447
H -1.1719786187357595 1.9506045137732433 -2.267383049500634
H -2.4585061615461834 2.2530940629898795 -1.0421846904760514
H -2.0895876273954785 0.5901383237458332 -1.6001556315113592
H 0.9894539101951005 0.3507881103950315 0.4946425682967449
H -0.2855758036199137 -0.2749380871376451 -2.2862065956702673
H 1.3751051190646084 -1.9552636850343825 -2.4468043785280926
H 2.2458852184285183 -0.9484856806685924 0.3859815368137748
H 3.833043378737944 -2.086958361338913 0.4961028888433775
H 5.182088953208079 -3.216310470715287 -1.205025404618181
H 3.787204287796958 -4.091187993269246 -1.9057423111708582
H 4.155651565973189 -4.1937456008950695 -0.16263182080312272
