27

C 5.708027400829444 -1.4040084433494424 0.8577541883182075
C 4.460730897304689 -0.5954044693721282 0.8073978112590362
C 3.473696527699373 0.06914479620431195 0.7686139899841373
C 2.2636227392417134 0.8946240393379604 0.6967292505355069
C 1.8045717097633878 0.8924731029389865 -0.7485080690773694
C 0.6458739662484418 1.7465444317346124 -0.9276479493804113
C -0.5834365507054572 1.4009505644086913 -0.7408901943989884
C -1.0022622059235118 0.07037875296309686 -0.313468203652036
C -2.27959559650979 -0.2059628199182639 -0.13373425480167034
C -3.379931854960592 0.6811581644283513 -0.3134479379105795
C -4.628455023387791 0.3151577643703947 -0.10830563193402665
C -4.903407111692783 -1.0916761211889958 0.3337822165726976
H 5.389484527246682 -2.4334677483091793 0.5794243409478855
H 6.093157553864269 -1.4503258089503541 1.8972951535349638
H 6.444712476067741 -1.0134804602660272 0.12285359496669968
H 1.438899249767587 0.48581573703584147 1.318252985580527
H 2.479386508402773 1.9505014495645032 0.9656958469884119
H 2.6615005841391737 1.2077723100304354 -1.3931730085094638
H 1.5986134024128338 -0.1767931787108035 -1.0256067034765208
H -1.3900338396806473 2.136827025518177 -0.9090463987443459
H -0.26774467736348645 -0.6918501006508632 -0.14605814519913732
H -2.4794127780492565 -1.255686401345126 0.19097256450797712
H -3.2445619416923615 1.7036467722222581 -0.6295655659409576
H -5.461687278669963 0.9745521996996729 -0.2406929028602901
H -4.481222412729985 -1.8365902490836832 -0.36138544482617824
H -4.361477499431021 -1.1947005471727188 1.3232041047306078
H -5.9990487722097905 -1.1796007621409776 0.4670916424449124
