13

C 2.685289900459787 0.11803738658006176 -0.7421576335285969
C 1.2664565684961542 0.2858143076400722 -0.17624331326182394
C 0.054999571231752274 0.4125697186814185 0.3239857493144522
C -1.1616394069778022 0.5198101597349157 0.8379293928493828
C -2.065897636668338 -0.6028545866269066 0.2225201704024457
H 3.359716384877759 0.6140354030196302 -0.036428561178984034
H 2.638101207753511 0.5652714137306136 -1.7269668438512793
H 2.8607444970507236 -0.9676406741111766 -0.7987766130845906
H -1.7457379488138378 1.4458748193397184 0.8030494234985335
H -1.1597488721976463 0.20342339762612477 1.9713782265571833
H -1.91094617691476 -0.7005940217058935 -0.847371513615887
H -1.7212304133434366 -1.556713604480185 0.7163225154965533
H -3.100107674790989 -0.33703371941131455 0.4124769800316579
