41

C 7.717116354792829 1.1984545441050105 -1.137559193051471
C 6.732420061942326 0.39048502413365344 -0.42795823568093094
C 5.91952140205957 -0.30017379811006323 0.17688661815695628
C 4.956460959801252 -1.1405981338994002 0.9239361053381698
C 3.588230290943402 -0.5698891554640555 0.8237333529709626
C 2.559336390572843 -1.2056936280322728 0.30467942413584603
C 1.2296011563961 -0.6295700450015566 0.21530317091208248
C 0.25494162623600836 -1.3378647497557652 -0.3182334347580992
C -1.127542283976645 -0.8736495435959908 -0.46634234920462486
C -1.2444138971912464 0.5990461518346427 -0.316550882413691
C -2.486446976257198 1.2975444688653586 -0.7811883243680076
C -3.562489781261909 0.26829479218327523 -0.989642957684688
C -4.829298197130497 0.8253787380491774 -1.4356777062288881
C -5.868857262149652 0.020004120850036278 -1.373869107309515
C -6.855085857017921 -0.8397603781719416 -1.1826787035406994
C -7.461636221122574 -0.8214735280706457 0.1393958211132215
C -0.26707990490987565 1.3150601374486741 0.2258817990624238
C 0.998064309443677 0.7387358897964568 0.7207780402164657
C 0.9601177156007366 0.7091685424353745 2.2322134764822756
H 7.196084105547934 1.9991438027800774 -1.6779116161001255
H 8.45301571368972 1.663683026778747 -0.4271430113972337
H 8.325758649222594 0.5495379825872585 -1.8177884699900184
H 5.244338831491335 -1.0523790153544461 1.9966052647787453
H 5.019114766481353 -2.1787336679126628 0.5856041910252903
H 3.433356696624751 0.4263195995717632 1.202503627147042
H 2.7345672741507405 -2.21103320775672 -0.0705715457769883
H 0.5035471533100343 -2.3510377289195263 -0.6773623999623802
H -1.7718611551385204 -1.3459833837774826 0.29555467041441263
H -2.766778751908333 2.019301921463525 0.02596176590816049
H -3.6557500828257754 -0.3266283544210109 -0.03911974153308549
H -3.200441944440628 -0.4366184423686061 -1.7739709060669098
H -5.075230833670463 1.7802150684313804 -1.8065648653213378
H -7.061993826496989 -1.4285071506296194 -2.032100186287395
H -8.205791803705482 -0.03476464269591065 0.2763593954425759
H -7.9851654386623006 -1.8041058517914856 0.29293172092914915
H -6.635632645850992 -0.7613453670328757 0.903791924165778
H -0.4382311787165629 2.398321168168951 0.29607619660816376
H 1.8532869504897667 1.3959374545784673 0.4099370239803136
H 1.4891396739860183 -0.21372146844067696 2.575601005503287
H 1.4091390622623985 1.6298431769466588 2.6800693563181777
H -0.07743110290351161 0.6390556302158626 2.5944653862896163
