18

C 4.612209028926923 -0.6821089057518936 0.40680857164670475
C 3.245914520403032 -0.16122952701709728 0.2011914781790107
C 2.123240301010017 0.25392441701989205 0.03250279428215603
C 0.7998868348101693 0.768905633526827 -0.16177232153718063
C -0.2876845031157859 0.01926377872996729 -0.12666565266306215
C -1.6203654750763847 0.533379483949818 -0.3215759609792473
C -2.6614445595377445 -0.2730492928261689 -0.273223892649408
C -4.054567139582798 0.1880814612453667 -0.4643051517859667
H 5.231679559791048 0.08943348870953535 0.8660947920741745
H 4.592287261418771 -1.5776086127742097 1.09103260700878
H 4.977044496502706 -1.0613185503998699 -0.5610794287885627
H 0.6769300987602485 1.819495285545112 -0.34632697063595386
H -0.16079654265960666 -1.035760133442432 0.058961316548304166
H -1.8380082192298388 1.5874342988233272 -0.5144918911382326
H -2.5487165184747917 -1.3533591798985072 -0.08458874350075193
H -4.316436231385508 -0.03379721988177284 -1.5379820646495346
H -4.057877796701525 1.2828897062117441 -0.2727016517008972
H -4.713295115858983 -0.36457613176953685 0.2239870728529304
