19

C -2.9641794554294036 2.302134473398566 0.30281041775406253
C -2.3277541597037485 1.024387462674967 -0.021741391126481567
C -1.784192215598207 -0.019972710016295827 -0.2877098458250252
C -1.09405299167634 -1.2899646193489462 -0.6135100228111998
C 0.40662694790342524 -1.0818836221197514 -0.5072106023678107
C 0.7771774473779864 -0.6687862575055353 0.8570015789239538
C 2.029609973146449 -0.3629517646651505 1.1735389756778019
C 3.114174466922082 -0.42518617111641244 0.15957966085957856
H -2.4777693013039546 3.065024701010203 -0.3395564204133684
H -4.0461413053603765 2.300680901863349 0.03475811272104901
H -2.8690614980712885 2.546028022704751 1.3794306474620157
H -1.3941560474185892 -1.5524724456293737 -1.6394916363865886
H -1.3706625286826761 -2.0936676275549555 0.09953913951463107
H 0.9024291212043914 -2.0361289103155005 -0.7704575883471091
H 0.6907216088976699 -0.3171180978932997 -1.2750961376187457
H 2.2282409104694976 -0.06724797877773392 2.19716051726806
H 3.760147870698374 0.4874565765103962 0.2719127855479679
H 2.6797820838787603 -0.48450023850572893 -0.8586293634553301
H 3.7390590727482524 -1.3258316947162225 0.35049315479621057
