42

C -1.784110958489077 -0.18708657173863008 -2.295240927978469
C -1.4327086988712128 -1.0839519799013668 -1.2114387431468499
C -0.1625832779066927 -1.4122353074548915 -1.1929107623172661
C 1.1222487934129348 -1.6449802438682375 -1.078715580861253
C 1.8629626100733327 -0.7170905637927867 -0.277132970303427
C 1.2985782612845786 -0.09320470865054327 0.7954943623748088
C 2.0508325033883 0.7919018206127789 1.5372919525196256
C 3.375064711904899 1.0416640732353744 1.1881641354802568
C 3.9547232216955313 0.4183178590541014 0.10855268314326307
C 3.1703259169422675 -0.4650073906326056 -0.6148570344585517
C 5.3538208128701665 0.8788881298845134 -0.011470172340625159
C 6.333240892871944 -0.2760129753657274 0.04270618466257355
C 5.529754865645639 1.8200747782905493 1.0907142372640921
C 4.400926457698001 1.901761743475724 1.7609425220221913
C -2.2260141129918773 -1.6691130991223706 -0.1611812915648691
C -2.8260872678939424 -0.6583474968877144 0.7617925922821556
C -3.7878763769564685 0.30404900503156657 0.16408998292914004
C -4.955649165059205 -0.3215158396847612 -0.4648162977889505
C -6.058629810405773 0.3167527164942943 -0.1563623510043058
C -5.759206542888269 1.4757462023674859 0.7394778343346318
C -4.405887517360494 1.0772439464227535 1.348027325496124
H -1.2226034597764435 -0.3798415470157094 -3.239713246704827
H -2.8757979021160938 -0.19984569601052082 -2.4573341532170208
H -1.504266323825533 0.8585481532586449 -2.0256447552669306
H 1.4303725546562822 -2.4985962469648593 -1.6040646734753885
H 0.26625431593985066 -0.2940237037252734 1.0599207136516204
H 1.6134922842003234 1.3044094176451544 2.405215377389914
H 3.668810079781876 -0.9425279611179056 -1.4692326730703542
H 5.5426123563549305 1.3864600598106487 -0.9907204764469005
H 6.236516442916836 -0.8299534557823974 -0.9065245851173637
H 7.339375104347231 0.15205532470529237 0.08377959290368088
H 6.134956197964228 -0.9590818727192383 0.8977464586804809
H 6.442744033168058 2.3765932235112737 1.3361735876597276
H -1.6986383913650218 -2.41774751029564 0.46760585463431076
H -3.1066464070556115 -2.1826295945969494 -0.6643778203337737
H -3.113623662023989 -1.0574146238378717 1.7393809587639495
H -3.2876942929434816 1.0547016254953658 -0.48551218208617974
H -4.981077244550047 -1.2152576517595293 -1.1247259783539243
H -7.096430662523829 0.10713209711574892 -0.4618808739927986
H -6.512140511407818 1.4391011118221795 1.5736920262736536
H -3.799082351696602 1.9663942850464744 1.5970405339222373
H -4.530857479009728 0.3855058728685465 2.1960486334414577
