15

C 0.39408623475485766 0.10093650183169776 -1.6632745937947204
C 0.09270705534264206 -0.4048698162661691 -0.28225720970340934
C -0.010900144787459405 -1.8904536499278888 -0.15313367155266108
C -0.07252742647717988 0.3925861734769718 0.7594980804903138
C -0.32660264808314443 0.8076579556339765 2.1463772988446714
C -0.08139418245170933 1.8608083900994408 1.1913295761137916
H -0.4573546585039882 -0.16954956646442557 -2.3020334220977965
H 0.6719565563891581 1.159876064288102 -1.6755833450587008
H 1.2677623651851917 -0.5090889212881036 -2.034635780023977
H 0.23817909914688576 -2.194624744348027 0.8942202554867884
H 0.659779403741393 -2.36819663108738 -0.8895043065030644
H -1.0559476078622074 -2.150642897516627 -0.3978330015153368
H -1.3389934086120003 0.5865768594289806 2.5158616867440178
H 0.9175376117238411 2.319077421169622 1.151746414566328
H -0.8982882494739994 2.4599068611102477 0.739222018232591
