21

C -2.2609596527081237 1.1822513339509666 -0.9363568539452011
C -1.2739130682049982 0.385263019724987 -0.18912284330886617
C -1.7411454937336117 -0.43922479041147044 0.9497369002852608
C 0.015551125519071347 0.37686341642295024 -0.4955624961648392
C 1.0141491538580245 -0.404750240960882 0.2297430193714043
C 1.7455342423946418 -1.3960005041909544 -0.6496498587578851
C 2.0426866994279744 0.5595892670590505 0.8003076368971149
H -3.0586503857700063 0.544062359202128 -1.3721571078964467
H -2.667635477741568 2.0203479759310783 -0.324627191006903
H -1.7441139902021008 1.6613926883791508 -1.7938512099390944
H -1.5863996442741606 -1.50717703428135 0.65244179926494
H -1.1419366851980925 -0.2228292529408086 1.8788127877952878
H -2.823244867550891 -0.30611444438293994 1.1388541088575321
H 0.3411115708939927 0.9914582161680655 -1.33881672361586
H 0.5815525592701054 -0.9619045799867181 1.0763129010109092
H 1.1984204414469655 -2.3254326438476194 -0.8086167747376245
H 1.9579067070086682 -0.9474906609247866 -1.6458439378202934
H 2.6869502418602087 -1.6655679453457528 -0.10305428857607743
H 2.5132531965013674 1.178553392247752 0.026161609449605935
H 1.4705093768648774 1.2685181262465521 1.462694000452812
H 2.730373950337691 0.008192301940625944 1.4425945223842476
