26

C 2.6632058539049877 0.20447969727461268 0.7685911770095841
C 1.3638293893877518 -0.46885609337534995 0.28664937181354955
C 1.655112458652792 -0.9160802672956466 -1.114669022907484
C 0.3014685878104561 0.5505102303966918 0.43544271293982884
C -1.0806705094901088 0.1863421062257058 0.0499668614505837
C -1.2814708863205957 -0.21427706414030875 -1.3780211442925454
C -1.9219119394353394 1.4620118502760826 0.24850890474976325
C -1.713776939252027 -0.8480107225167891 0.9467091719263329
H 3.3446592503768864 -0.5468984905840714 1.2285047739536743
H 2.431803275255336 1.0239644142669544 1.48571166053313
H 3.1814059162342643 0.6808244475016835 -0.09042461192593956
H 1.237790573972021 -1.3554810769829122 0.923307906613351
H 1.2553296224706039 -0.2828065742602553 -1.8992748393418384
H 1.292887131853481 -1.972701996363892 -1.247645962458914
H 2.7649688979320532 -0.9951680007044703 -1.3185416061844704
H 0.273485046539733 0.8450194596247563 1.5176504306198988
H 0.5816088232636258 1.4763887827728492 -0.10976323554412185
H -2.404824595693652 -0.2534302847661854 -1.5251597454300823
H -0.9357909206382657 -1.2164163110780004 -1.6429259022955143
H -0.9597159319846464 0.5891886986673293 -2.072934852022111
H -1.664183018273417 1.8126933147173454 1.2701761824635305
H -2.974938595514492 1.19147218451541 0.21482452192427556
H -1.6216296413443336 2.2233140950889525 -0.5002883943056564
H -1.5415010363452442 -1.8766422790435175 0.6368444522659658
H -2.829234071065023 -0.6844199315118334 0.9018768559683897
H -1.4179067422969547 -0.6150201887052194 1.9848843324767633
