19

C 2.9666199463228504 -0.02008972104390951 -0.1529917233119453
C 1.5129230240134173 0.22043192133711795 0.015795749279046742
C 0.6962407498939925 -0.7958479684373448 -0.37571733360052484
C -0.6963640702593165 -0.6756553074617644 -0.2605804667725779
C -1.7206887399777708 -1.5734504783513366 -0.5924285628912723
C -2.898618757333311 -0.9731530135044988 -0.28431465084549334
C -2.575787080824295 0.34346996104122035 0.25693562880192966
C -1.285646092269865 0.5452821413317647 0.2824670546164753
C -0.33705027623016887 1.6072546502960692 0.687179915010821
C 0.9651526378096101 1.44785785958125 0.5596131433883627
H 3.371183268584068 0.44306525395751506 -1.0620601773203733
H 3.2221074738288262 -1.098347369520668 -0.10417149872125457
H 3.4994519807251514 0.4422305001932034 0.7266521986922378
H 1.168129032273471 -1.7057938797432373 -0.7818693475620594
H -1.6430075464722549 -2.5841403885676995 -1.0229768517609672
H -3.8342266294217233 -1.4611057703002384 -0.4471361436627614
H -3.303209313095328 1.0888779774069812 0.6055063436304313
H -0.7702353107830057 2.5064279796193105 1.0870308363641554
H 1.6630257032156865 2.242685652166295 0.8630658866658011
