12

C 1.369600938012321 -0.9957458074235903 0.10053981445823981
C 0.216159573051264 -0.021788248398234164 0.07341878598085552
C 0.1386780794694278 1.261872542914 0.14480519679967857
C -1.2995134268300013 1.2769710175126407 0.038918332574576824
C -1.217222444200886 -0.1879142618235839 -0.04300937502220713
H 2.2707383969924413 -0.5511797658090151 0.5439979381226345
H 1.536090488156881 -1.4133835457615411 -0.9009853115799171
H 1.0855761883680235 -1.8506132254103171 0.7646537823756867
H 0.9657332826267837 2.005108759284317 0.2508654694876726
H -1.7667520553021374 1.826146272409747 -0.7948169355128097
H -1.7199995219517052 -0.7053463367430985 0.8356643207507394
H -1.5790894982554529 -0.6441273989153583 -1.0140520172185818
