20

C -2.1496598075924953 -1.3893603309978733 0.6920887377504903
C -1.28801235245902 -0.20009535339356896 0.32697453194705334
C -1.7661993571007253 0.842549863460689 -0.32941899445105727
C -0.7034779552613357 1.8580205584885878 -0.5525340716109233
C 0.5135036551655304 1.0585107034453978 -0.3752218135255454
C 1.7500884166058133 1.0518948816662597 -0.8488824166026737
C 2.76935223907096 0.06602699411912523 -0.4411761615340956
C 2.181755965173017 -1.1629901732821264 0.11264554568525699
C 0.9640442505896688 -1.157773168848897 0.5872208093288437
C 0.12557196504126672 0.027439302994806923 0.6012342644216602
H -2.4630488168289713 -1.3192721091178616 1.7547125690399243
H -1.510586601895156 -2.2773899436012104 0.5378817269213677
H -3.0295250163175584 -1.4624831836459915 0.05579315127249325
H -2.7909273241460344 0.9788606403654742 -0.6772149655928502
H -0.78440217283262 2.3476977412357742 -1.5366199474792634
H -0.7201350356775312 2.612955770844045 0.28599032645296835
H 2.083739292151839 1.8027645205416611 -1.5893896920478305
H 3.499161604304572 0.5243294106956152 0.26754176020774123
H 2.787508618951879 -2.1154162305671114 0.1262297728203988
H 0.5312484330569014 -2.086269894402677 1.002144866995976
