17

C -1.9400374840613364 -0.7570814608647451 0.9200443973667143
C -0.606223847142959 -0.5816361041571345 0.3569454338964327
C 0.44244745664943214 -1.2023993413741758 0.9055181532522388
C 1.779621271887415 -0.9613781457663713 0.2560440704526286
C 1.8916178892535869 0.5069874637862616 0.04061523093458701
C 0.8345783140078008 1.1552375224172253 -0.4336802707376179
C -0.5098477908601581 1.6720023048901533 -0.9844473706164973
C -0.34654696677558217 0.25486638152358515 -0.8021840798809519
H -2.480561432634115 -1.5821890157748153 0.38560904072809393
H -2.594859087484692 0.15329658212872052 0.796984641741979
H -1.9535217325037935 -1.0310312141114224 1.994785336653671
H 1.8586476372531844 -1.4525094158949265 -0.7085324816873249
H 2.540850048477689 -1.2457493355070017 0.9985438584536943
H 2.771396646498413 1.0724731287056122 0.24436948398312697
H -1.098661233466224 2.2824583310984434 -0.24521009677599284
H -0.4382553906311819 2.0862621151650584 -1.9868238129086224
H -0.15064429846754634 -0.3696097962649358 -1.7385815348564626
