17

C 2.2567526636546473 0.24757454119959696 -0.23491035315640457
C 0.7330421400491036 0.2666767131527965 -0.1792521148375856
C 0.11475717805404964 1.343499398059808 0.24219172855068566
C -1.3223030232834565 1.407362264902818 0.31387415016327286
C -2.076295196328981 0.39005380047654675 -0.036956886722290555
C -1.483116660293237 -0.8465295884379144 -0.5118746371299813
C -0.7478961122614961 -1.7748262643485608 0.37808956655017234
C -0.013107261237865582 -0.9210243463591528 -0.6174256939099979
H 2.62111470826904 0.6216850965473565 -1.1898274490160954
H 2.6785213714577845 0.8652144497790326 0.5716241839137818
H 2.528090294467131 -0.8113810445551723 -0.02040654706257606
H 0.7475859386919615 2.195617989567349 0.5382812640063731
H -1.8084387329017575 2.3222670823994203 0.6683589559098936
H -3.187973633802977 0.4735185280415495 0.02937107336508832
H -0.6202681682938292 -1.4681450278172705 1.4494249191465414
H -0.8103955277429002 -2.843000042136852 0.13279833343680558
H 0.3899300215027726 -1.4685635504713437 -1.5333604932076965
