17

C 2.526565351995103 0.023594912952652772 0.034939262066911066
C 1.0482343953795197 -0.1256627062704058 0.1394454623787739
C 0.46369147800362454 -1.020361744345862 -0.6374535401243613
C -0.9850794670563563 -1.209840931415775 -0.5773326931077223
C -1.7186259796895376 -0.019432625415035102 -0.0902768815221782
C -1.0820948570651863 0.8428714347438282 0.6736003969207153
C 0.32688881482066856 0.728108349356849 1.0976798536422236
C -2.4993300829748204 1.1499925493969743 0.36704445098725147
H 2.9706017851961826 -0.8868846573981908 0.48742739162880194
H 2.87243912123451 0.9540986015269133 0.5420214941158671
H 2.773257543190882 0.11911833381930231 -1.0499643462229948
H 1.041966380290067 -1.6262585817530861 -1.328736452348509
H -1.3389287629497764 -1.4114912856977506 -1.6279202108786512
H -1.2986711416269956 -2.115234548793193 0.004962589053007093
H 0.8416468416653936 1.7093361397841276 1.1721478026881549
H -3.2119971245522327 0.9755490987834097 1.191303493843108
H -2.730564295861018 1.9124976607252646 -0.39888807312040586
