19

C 2.5097651567785495 -0.27744115643333034 -0.3522442557115296
C 1.0983473172871843 0.1398274903171792 0.042183699948951756
C 0.9201409551190052 1.4041556391610996 0.31142003640257365
C -0.3854233834815823 1.9157982142582488 0.6997690740878502
C -1.3836547625038806 1.0810815034512866 0.7757888210216255
C -1.2873570477722038 -0.34167682532036925 0.49824892374941654
C -2.336152920310353 -0.716624740778265 -0.5770292246419457
C 0.03457021890575759 -0.8488123151835854 0.09702520432658102
H 2.6678533585099222 0.04630559599400075 -1.3971444557143038
H 2.5565340326138704 -1.384088594447255 -0.29221304087443606
H 3.2445973455587214 0.21110032711779908 0.2979320565753205
H 1.7349397864464369 2.1276200584955713 0.257835010898925
H -0.494212527388801 2.990795319738846 0.9181307057996466
H -1.6013245336833983 -0.947617570495932 1.4300821266394956
H -2.2310060327706087 0.035935946602515804 -1.3784131939396107
H -3.325916818334533 -0.7350488995703729 -0.12590845955905378
H -2.0032278966871373 -1.723004921165739 -0.9400151803983736
H -0.06692969885700628 -1.222851567986713 -0.9798955982506756
H 0.34845745057007904 -1.755453503754998 0.7144477496395246
