12

C -1.7133241823148018 -0.185341274788126 -0.00013483345503709075
C -0.2391843045141454 0.07742134087137824 -0.0028406327894763845
C 0.2576715593383064 1.2954938650123577 0.04751939536680303
C 1.7372319104462841 1.1799919608560625 0.027597522339455168
C 1.9844451063574342 -0.27864759230154446 -0.041082734530034776
C 0.8255926649217324 -0.9050078921285115 -0.058008628148676404
H -1.955346254882542 -1.2053819193231343 -0.34706430191939175
H -2.0782432524252465 -0.11058679367769306 1.043748846026832
H -2.206424433182313 0.6137519876008349 -0.5880487687718511
H -0.24601521677365673 2.2511055337169465 0.09592266559205577
H 2.9578942728414375 -0.7322470601753667 -0.07134988975551716
H 0.675702130187506 -2.0005521556632133 -0.10625863995515528
