16

C 2.16399779133523 0.32074342944326023 0.12588421831490548
C 0.680641917970778 0.20746949315283647 0.10556780298521161
C -0.18427065788845562 1.1732186231826802 -0.18161409458165415
C -1.586366439807242 0.647307524861291 -0.0891248468630865
C -1.3227156396922093 -0.8323296052538296 -0.4117882870946786
C -0.06754095873958743 -1.0386925173352217 0.4132106127148224
H 2.514029427856131 1.3168632889057785 -0.18865782914203985
H 2.619522548597548 -0.40089160441062893 -0.6100183571630858
H 2.5559250117717958 0.032499666207313496 1.1183635335379298
H 0.023667301421963154 2.202039255641905 -0.44904187636001786
H -2.256646245703237 1.114028076548404 -0.8076171236919569
H -1.9514060018655863 0.6566451526354021 0.9514447831705567
H -2.161851915557118 -1.4632296340267745 -0.08555686330858649
H -1.0998169322311728 -0.948419685171728 -1.51174451633155
H 0.47058358768346037 -1.9502913480927908 0.13974589148242295
H -0.39775279515224016 -1.0369601162878779 1.480946952330804
