29

C 4.712969172427487 0.03780857726572354 0.35557525155403813
C 3.2475978313639704 0.09555030908434324 0.19055695366962358
C 2.410985548458457 0.6382137337549592 1.0949287677837418
C 1.1045440611722932 0.49659174668543615 0.552523680052082
C 0.040640407063607775 -0.23953168377436124 1.2224490517972888
C -0.751308429565144 -0.7830203762392893 0.26751108631977005
C -1.9085103050554448 -1.577558469914056 0.7122196840326729
C -3.163800472167413 -1.0292036779856282 0.05749800151103609
C -3.5497338461513532 0.16854084869834232 -0.32257238028247365
C -2.952554857571807 1.515382016021376 -0.2899299357819976
C -1.8041669466633505 1.5932308648513216 -1.2100220901107757
C -0.7526594413983997 0.8700930216486976 -1.5277344864968843
C -0.1916351740584636 -0.41961698035477146 -1.1005578502909124
C 1.2202582298086277 -0.2881311962588287 -0.7227871894015462
C 2.478773647624023 -0.4713616673844296 -0.9287447585235006
H 4.923607732888363 -0.27898114789932643 1.4128970207886902
H 5.10921896110974 1.063490158877097 0.2626235882828832
H 5.161303059198354 -0.6606463865386348 -0.3756492075700074
H 2.7153731396071312 1.0795530596799088 2.028569396971786
H -0.1699472034286724 -0.38805528518954563 2.2708258689554497
H -1.769898176461021 -2.6207440781660254 0.3300053009261747
H -2.0453236604353013 -1.5175994478784582 1.7919706042787387
H -3.8584469024000887 -1.83260636128147 -0.1125362393646865
H -4.528460206493726 0.15899022101516544 -0.7577024919191571
H -3.743132417144957 2.278072671091276 -0.5574848529997809
H -2.674110535248567 1.8091749387116027 0.758280787429069
H -1.8367942477964923 2.516500268472968 -1.7952180963373185
H -0.3793008218833655 -1.244807126806153 -1.8146041024804274
H 2.954511853201752 -0.9693285501873289 -1.792891362793694
