14

C 2.1799828337949245 -0.133263167395911 -0.06377784574786521
C 0.698656234119005 -0.051185394502568 -0.14846535156478122
C -0.21681479679036605 -0.912447216464342 0.26104379578801074
C -1.5809705500035627 -0.4014564051126225 -0.03732123909687663
C -1.3136310754151856 1.0964449025631557 -0.06514467000898641
C 0.02514661722817419 1.1281387934598712 -0.7663986768282735
H 2.5909223960246104 0.14523582333284318 -1.0394380214991363
H 2.5795486866155626 0.5171600538513431 0.7592564230678874
H 2.45778843073427 -1.1753996512272216 0.2513578697798163
H -0.01467733050599466 -1.853045153788595 0.7432331660655687
H -2.3186059850197904 -0.646769216106622 0.7260355100604962
H -1.8627920717271143 -0.7909609140077916 -1.0261385648750052
H -2.0941748948071797 1.6578106516515314 -0.5761595582659439
H -1.1303784942473725 1.4197368937469532 0.9819171631251029
