14

C 1.9380605285598131 0.31603772343872594 -0.4445733829606165
C 0.5415144234066533 0.09026287410853798 -0.04703110366776003
C -0.34621125369046907 1.071459676565715 -0.09200211110210241
C -1.7260913272269927 0.7840089195406983 0.3178275228093401
C -2.148850530980861 -0.4583648193529946 0.16692187244056442
C -1.3110063482940477 -1.414131173356377 -0.020040090362997278
C 0.08077885829161076 -1.2589172536629383 0.4214837405967541
H 2.0678713799977366 -0.11596501632495469 -1.4650607914641511
H 2.577155281887657 -0.3360996355053868 0.2194287712577901
H 2.23555167612683 1.3650089298419719 -0.39795469842062814
H -0.1021540770851336 2.0664855179920707 -0.41440453840117336
H -2.377377102519274 1.5477735893448985 0.7266902864360819
H -1.6292491952885326 -2.3111917842256138 -0.49280123542988324
H 0.20000768681495204 -1.3463675484043667 1.521515758268786
