14

C 2.0048755826280678 -0.031546673018066754 -0.16508068384181107
C 0.5022532482546515 0.07368114127906299 -0.04963251460587808
C -0.21230131915691255 1.1835078014315448 -0.048040948656354374
C -1.6349217543347874 0.9234675782427852 0.07935354035891265
C -1.7658867594407135 -0.38411624433246505 0.15562931839197108
C -0.4579187410549739 -1.048353758456841 0.08394733015856934
H 2.488739028282587 0.7812793197130989 0.4156360871259246
H 2.2743414768062484 -0.9919218276562362 0.3503134045169333
H 2.3119227675160943 -0.04131595021787829 -1.229497448842925
H 0.2761915988952407 2.1653013827858105 -0.136751612440293
H -2.4494688913084364 1.6490173865614655 0.10835062526701178
H -2.7119954105491013 -0.8989351493470891 0.25744940038982406
H -0.23084676392349432 -1.6516819327251195 0.9929233332424724
H -0.39498406261449304 -1.7283830742600919 -0.814599831064359
