17

C 2.4330188698957795 0.10904901059802805 0.016837762249515494
C 0.9631712567443463 0.032049115709619345 -0.13610148855887186
C 0.41967286742488014 -1.1703532967617125 -0.20396507057251606
C -0.9363446741563783 -1.6867366428711856 -0.34935303624106223
C -2.0023334037140073 -0.7759584604796926 0.055363918629823615
C -2.120779907163493 0.5315738992575822 0.19701230391494237
C -1.0573416178982349 1.4985105537309007 -0.056416667637133655
C 0.24916081031170245 1.2900917658840914 -0.19792983420699828
H 2.6267969855030273 0.7686504439086422 0.9099330944447079
H 2.8902499784959064 -0.8525271493835819 0.2239764187583387
H 2.932738309508547 0.5619152148241187 -0.8585948188600182
H 1.185430282825375 -1.9547858637464721 -0.13227614246261865
H -1.0100577601608485 -2.638180921679509 0.21805640354923655
H -2.940269284350936 -1.2943764160041749 0.30567506237525155
H -3.0888960509168992 0.8910947377356191 0.5270966612185063
H -1.4138428019174722 2.5135251174973097 -0.13433032016249516
H 0.8696261395687334 2.1764588917804937 -0.3849842464386034
