15

C 2.010265399188947 -0.09954269788424829 -0.1351274130685537
C 0.5155049384606091 -0.03218111589458461 -0.11478602868001277
C -0.3096399269999634 -0.9764172915562535 -0.5023921323480928
C -1.7180955466725991 -0.5261462725453897 -0.3260250157329703
C -1.547935279816675 0.5240083405420545 0.7818253299329082
C -0.23402689762676723 1.1533136983653338 0.3632503893941192
H 2.395984223488447 0.3505846537826242 0.802554967329174
H 2.34065634239789 0.5396424733246497 -0.9759977642582246
H 2.34736695140309 -1.1308053630513868 -0.28690791558511775
H 0.006509032389188839 -1.9350103045226592 -0.8904459235188968
H -2.03378813110352 -0.00748307144357523 -1.23334674472227
H -2.3375251920865803 -1.3620342649253405 -0.007350077328140831
H -1.3124724903708012 -0.03272677466711736 1.7365581942301873
H 0.2431319568231284 1.6438536973522007 1.2415861889463211
H -0.3659353794744702 1.890944293123688 -0.4533960545904597
