18

C 2.1544399188648455 -0.8274124789149042 0.37252796623441703
C 0.7766232086386672 -0.3115902013866782 0.02629374042598774
C -0.12889221426545916 -1.254711118838773 -0.07677075862433265
C -1.547837966719331 -1.12899576967882 -0.3939713116229398
C -2.2480480133731606 -0.0008919381593031174 0.2731531186251041
C -1.8099832924330335 1.3397001314607182 -0.17754723170016665
C -0.5553474944130803 1.7441152157564768 -0.31715398637264275
C 0.7576787379654379 1.1389878983893493 -0.1186218440579042
H 2.2043055175511834 -1.9150094997468528 0.35961425799044605
H 2.505302614762212 -0.36794533896618875 1.3166752374926083
H 2.820446293312624 -0.412427312653168 -0.4323758083103952
H 0.20544106045458524 -2.273065488407336 0.09396470727082316
H -1.8327352732448277 -1.3155303440826311 -1.4236600322766864
H -2.162366090980388 -0.08787555900367576 1.3764380859261893
H -3.3363588114362184 -0.08401924478172196 0.02947073697986303
H -0.5000929528526328 2.7813822253291205 -0.6649539512920877
H 1.3028697725532112 1.5774969951584072 0.7679260544877855
H 1.3945549856154063 1.397791828525821 -1.0110089811760667
