16

C 2.142388997702213 0.3929160792549692 0.11279408779052612
C 0.6942770486902172 0.2245841191102157 -0.0793663511936761
C -0.11993048152252453 1.2483925096066388 0.12322445930275676
C -1.5867703275442195 1.1089377758404257 -0.06265756246711436
C -2.048687570387498 -0.27203636741606413 0.13101271449749463
C -1.2528096193598395 -1.3097212015743718 -0.0664861644812851
C 0.14151159056942705 -1.0670525396147783 -0.49481577110002734
H 2.5008018615185867 1.3180813192963565 -0.42349357017139266
H 2.7359836983213195 -0.4438927827103599 -0.2939706197853728
H 2.415169325691307 0.5720306820631047 1.1817568920977242
H 0.2644631006140617 2.2091940631601883 0.42857035360614
H -2.148525035649049 1.8241026446369224 0.6047497387767222
H -3.077709497795536 -0.42881461290704126 0.44609659737875534
H -1.6241435963713342 -2.3434676073240075 0.08692445830284083
H 0.1925019711642637 -1.1203964569270906 -1.6027068330768626
H 0.7714785343587378 -1.912857624494903 -0.09163242947721277
