19

C -2.2203262002476913 -0.8178423036412616 0.07737483694409175
C -1.063891550441922 0.10764476851587311 0.12064715834029059
C -1.0679520234847661 1.406327954244668 -0.29217637763027815
C 0.33633423113074806 1.9808097667494695 -0.06999611969228203
C 1.0816716270089837 0.7180672500521484 -0.27626006948844445
C 2.008528197873829 -0.03333943443233368 -0.7656234157938281
C 1.8999203107936176 -1.4090003713074402 -0.3021540550615881
C 0.8597517297839071 -1.4955427523769755 0.5174129365651797
C 0.26072775955696714 -0.19225457085254274 0.6356078002792989
H -1.9422200053477077 -1.706704024280283 -0.5218423342454065
H -2.467399067059481 -1.0964732759027727 1.1328797346051
H -3.086212095517513 -0.29338465394240854 -0.39363870269448226
H -1.866592002007416 1.9769059613404987 -0.702962119728022
H 0.39187688848998004 2.296075575843275 0.9850584063430889
H 0.567990295063979 2.743381712363329 -0.8114493372074517
H 2.825323036757322 0.26017979559110826 -1.462074649788039
H 2.56571894027016 -2.242739067477366 -0.5809019640134573
H 0.5141267824120035 -2.3877908861858077 1.0154630446039181
H 0.40262314496504154 0.18567855569885094 1.6946352276623122
