23

C -2.9076713969835093 -1.134830739075863 -0.06721127064256371
C -1.6027775146099985 -0.43359982319443047 -0.07444061653373338
C -1.6440950922038688 0.7441859438317133 0.5261187338781937
C -0.753099982693568 1.8819731145334182 0.8508870998003476
C 0.2423087556085116 2.176006549360336 -0.17379013069210508
C 1.16918797857283 1.4334990950827213 -0.7550570768812388
C 1.6312551697209425 0.060305179627519565 -0.6767888157420431
C 3.0153409046533644 0.0758263261426744 -0.010384817207147052
C 0.7647359453559308 -0.9033097473780763 0.05183842714494834
C -0.4887779061832171 -1.1480582736468454 -0.7379962554306607
H -2.9600481186606733 -1.8720968434354888 -0.8923237902857223
H -3.0658872785344267 -1.6303996367706695 0.9219308360149429
H -3.6936010313573227 -0.35762913526389667 -0.15878713210434542
H -2.646742981246061 0.9311209610442155 0.8946995073231185
H -0.40252722726244305 1.8780209310955358 1.8801687069599335
H 0.18233070217184885 3.2102840807342776 -0.49801937155805415
H 1.8282702366709844 -0.38964200247553465 -1.6944404071688062
H 3.6403749092471704 -0.7725204490440605 -0.3982444692477724
H 2.9389983620267444 -0.07761954474026644 1.0802672546214906
H 3.55018651328777 0.9992101952155129 -0.2966273792583944
H 1.3586146364340819 -1.8563620486507162 0.16394356610328212
H 0.5459856505541649 -0.5910753631907074 1.0992946657306433
H -0.7023612345690444 -2.2232887698015036 -0.8930055727239584
