13

C 1.9130440265044948 0.12819598385755065 0.08210314230011057
C 0.4254955132552419 0.05446679056487203 -0.023724291268660314
C -0.37478811726954553 1.1009145391375317 0.007983207595616233
C -1.773084916905277 0.6497898455913278 -0.12266610242129052
C -1.6712794257346257 -0.816208202672507 -0.23549417792953903
C -0.4005791345764459 -1.1334896148290363 -0.17611662528061983
H 2.236117224663989 0.4579627540782219 1.0992656636900286
H 2.3881372528306875 -0.8352937936032486 -0.1846521026192865
H 2.2579264626386886 0.9038604250070059 -0.6479724225286557
H -0.06273756374423366 2.1315571070600465 0.1130297326917175
H -2.4398040102714678 1.0016435892779776 0.6667222079765072
H -2.4921307652221256 -1.4759734793140855 -0.3444470204064006
H -0.006316546169373554 -2.1674259441556605 -0.2340312117995271
