10

C 1.5073668220150649 0.21817679557086797 0.03894758603838838
C 0.015232689214191079 -0.0011411685106508219 -1.674122770314081e-05
C -1.150009620764672 0.6872296760989355 -0.06810378916253292
C -1.2229247754346335 -0.7883993000909486 -0.005822882635868506
H 1.989332039616581 -0.756430049741062 0.15946313272995957
H 1.7838045561503688 0.8784336178929906 0.8975018525879204
H 1.8569653862825442 0.706089215361532 -0.911475824899645
H -1.6990365436100725 1.6225084990618135 -0.1269562737217545
H -1.416596047020738 -1.3856624581789638 -0.90552857405193
H -1.6641345064486115 -1.180804827464519 0.9219915143431568
