19

C 2.411860084909654 -0.5289998846673784 0.26883158457069367
C 1.135357975578112 0.10822418983285084 0.10468701884496942
C 0.010348711424250494 -0.39761960819940795 0.4059298985870134
C -0.8920296968565307 0.4856812059787683 1.2754362320545944
C -1.4738275262980458 1.0163683816744407 -0.11022879901767589
C -0.33167964480822204 1.7279412702771613 -0.6807288025395501
C 0.9570723661951869 1.4822894201295385 -0.5913577482223316
C -1.8194269852125053 -0.34881335040758304 -0.7440017287487506
C -0.951960172588201 -1.4250897233281326 0.09107776766771385
H 2.9350140048353732 -0.12166002763274927 1.1723611920577592
H 2.2863923136124114 -1.6192756038839589 0.48742871361267076
H 3.1146830341988183 -0.40341914338918 -0.5946929989872473
H -0.3754822111417082 1.2830504082912468 1.7596051136861208
H -2.3437814113051787 1.6267591435940114 0.0934607645109763
H 1.8033163541411346 2.0203430402665723 -0.8852954087815531
H -2.8563370147638967 -0.6081492025297592 -0.671861037259365
H -1.3236389409045415 -0.3775849479379891 -1.7146056893185144
H -1.6098453897983271 -1.6890872305498212 0.9133954892398902
H -0.6760358512175887 -2.23095833751878 -0.5794415619573444
