20

C 3.047628221586261 1.5122990004703944 -0.1832825827269333
C 1.9273739302003696 0.5449600921174603 -0.1822837929824877
C 0.6481066968069953 0.9182261179171956 -0.045141751701976554
C -0.1529583849665445 -0.2812194175995782 -0.09115804806335284
C -1.4881287352119983 -0.2906069458169919 0.015234855053299667
C -2.5490942822524043 0.6331891783238783 0.18546322577695318
C -3.45079422462815 -0.27377467532643857 0.1743765092930594
C -2.5049849445531107 -1.341117879594407 0.00019456819544127454
C 0.7360163761103621 -1.399273842509761 -0.2654825146228145
C 1.9844909764611622 -0.9127682406479068 -0.3210295084544583
H 3.3820635025284065 1.7255649641883133 -1.2282278730666678
H 2.7602632195383054 2.451384067970752 0.3087651467251543
H 3.9383070199941743 1.1289464681397214 0.3562251816921629
H 0.32718466300144544 1.952771358881099 0.07585398730213176
H -2.505325455270303 1.747014546126094 0.2844940272809497
H -4.54837655328828 -0.23889117775561206 0.2657133002310206
H -2.4245382283764276 -2.095930244317251 0.8233062826780986
H -2.521825199343526 -1.8403666279672835 -1.0182812823664324
H 0.492060400413999 -2.4710550646191867 -0.3445122551112758
H 2.9025310012500967 -1.4693516779826115 -0.4460196100540277
