22

C 2.6555790372846624 0.8664966024612673 -0.05243397816680415
C 1.3869970229547528 0.18272707999834928 0.32196052405070985
C 0.3856309362224237 0.815907334249353 0.9098382525567624
C -0.7491311133335009 -0.14807851489832116 1.156920270763841
C -1.716296641700119 0.05494997031298443 0.01978595690812693
C -1.8715000387862335 1.5036269584021162 -0.3641846882525233
C -1.1650222576595675 -0.7409563117984519 -1.1399609082017859
C -0.15100470208600897 -1.6938556361454364 -0.5780045834531553
C -0.15738364415627223 -1.483586776288889 0.8667543902777045
C 1.0695312629557239 -1.2457742120875475 0.10220184661782586
H 2.4808902226724 1.8331487429842823 -0.5716491921746764
H 3.3112993082944153 1.0424949597024447 0.8288657316495596
H 3.2577692854691027 0.24615225430994997 -0.752913205602138
H 0.3875959093104176 1.8643094955620216 1.1703299026553238
H -2.702274075606764 -0.3417329065590554 0.36866921023544985
H -1.2475145737702231 1.8015076323539314 -1.223583660719006
H -2.9353883799998504 1.6277879847121774 -0.7042289971613903
H -1.711076211861786 2.127717892112365 0.5224338111951612
H -2.027877176080941 -1.3584538567608178 -1.5280399819552208
H -0.1344883259065739 -2.7036036018283 -1.0266720250098835
H -0.29880398445907097 -2.3374881986630185 1.5555575359608929
H 1.9324681402430293 -1.9132968921314712 0.1183537878252265
