29

C 5.018622857630028 0.420592409738205 0.28916805513609145
C 3.5277612521689976 0.32636341120576634 0.17994801056360285
C 2.698192691047367 1.3390153510287819 0.03191319639560773
C 1.3449987077367356 0.7822187601193924 -0.028603952689521126
C 0.09126784428190453 1.3854167531784762 -0.17646921905697519
C -1.0645151630908645 0.6332432949960145 -0.20556630107474938
C -0.9865246984938415 -0.7488175746450105 -0.0860484628843888
C 0.2549653150445187 -1.3312211563966532 0.05907204202342386
C 1.4369315065691082 -0.5873925349125511 0.09082598685271004
C 2.7075971787348294 -0.8759810926664338 0.21413384178025535
C -2.021124553480654 -1.7918657942599217 -0.0794822761126079
C -3.306656877940543 -1.3738727232967858 0.48656625246884855
C -3.9435235316745083 -0.23959905392320074 0.34145739658967933
C -3.5556646023592644 0.9397278402214179 -0.4285950226368287
C -2.161573007371339 1.350464126173227 -0.3520475627712128
H 5.3168084496437364 -0.3766879257004133 1.0141007926552201
H 5.313328141828907 1.4036869443340372 0.7010217067891534
H 5.4732199369585794 0.18775149070750535 -0.6798152342428956
H 2.9048436094477714 2.3950200996095776 -0.038394406487437784
H 0.011476525067587798 2.4543209936477868 -0.2703361918206252
H 0.3967474788309429 -2.4076734440956327 0.15842293739896163
H 3.083147892615881 -1.8950142865478516 0.32708646401218033
H -2.2116018377530797 -2.0765460300205634 -1.1561845369026325
H -1.6160255655283957 -2.697156902427634 0.40857727603551675
H -3.773015979123147 -2.129034902208698 1.1080871897450975
H -4.888430821030784 -0.16672853326127626 0.8635362276468125
H -3.8874649265190673 0.835819828615489 -1.4854785440663862
H -4.174821250469154 1.8099234168660723 -0.05047547535469814
H -1.9889665727719839 2.4340272339211375 -0.4293762242657582
