13

C -1.92276076083049 -0.14928742700633887 -0.693265117476239
C -0.4518205722196749 -0.17848431412180363 -0.3128882142663212
C 0.4767961626238453 -0.9357989329016562 -0.8575297307374082
C 1.768208359033689 -0.6920422340312393 -0.2374573147264867
C 1.6089366782585741 0.2276045653474307 0.6947613640801844
C 0.19178042340238416 0.63049321136838 0.7263347202883998
H -2.0752675430670204 -0.889857428645675 -1.4964734066573153
H -2.45991918016713 -0.4644137374514729 0.2186650769689493
H -2.1479786500658276 0.8766356808811719 -1.0209047394462005
H 2.7028309448461174 -1.200826571534332 -0.5164173439295466
H 2.442142003684652 0.5849721305165946 1.3073145529689763
H 0.13976821824938876 1.7295952856634633 0.45991412161858003
H -0.27271608374848083 0.46140977191550087 1.7279460313144495
