22

C -3.285012818377601 -0.5784145068241758 0.5915785714058093
C -1.8641923420376536 -0.3076330994379762 0.20911631535300965
C -0.7826820417443706 -0.949787844015871 0.5884426081180697
C 0.39833709158583547 -0.3116122191334527 -0.055966973723976694
C -0.004798915918446338 0.6808168522607226 -0.7925696029385929
C 1.1726500039407262 1.319297811854562 -1.436796740713377
C 2.252272264258478 0.6820941158727085 -1.061146194555046
C 1.8674077366663873 -0.40384329474434016 -0.15721232910426114
C 2.541849757858164 -0.31417792378673887 1.193052136412454
C -1.4835750894833408 0.7820586599544896 -0.6972779410089155
H -3.7688206356749983 -1.1117729538304246 -0.2527253388877577
H -3.8123262879140545 0.3822843200149953 0.6986420660223572
H -3.376112100243712 -1.1298596897492261 1.5304413736734463
H -0.7210044393950638 -1.7995629089814724 1.2527628562665216
H 1.0761596477323045 2.182040237825229 -2.1072560929317565
H 3.279639215636853 0.9434975723826032 -1.38954888619467
H 2.111293285591597 -1.411574844050387 -0.5926744669551752
H 2.5571868116161007 -1.3396187426920112 1.616205486867555
H 1.9802698407374228 0.3153061232776067 1.9063632009091294
H 3.5793620188791624 0.04063609817291367 1.0133982255698213
H -1.9092285679757033 0.5484123245263063 -1.710627008873993
H -1.8086744357379991 1.7814139111040312 -0.3462012647105793
