32

C -1.692361919346796 -2.298513057611282 1.0282376456392621
C -2.0469329597250683 -0.8730043434884549 0.7993908908224657
C -2.918218908601078 -0.24138124700706112 1.6294578337107182
C -3.100879432326955 1.1802607688394944 1.175477253338475
C -2.065069523037453 1.3340900247399805 0.10165192842171002
C -1.6862720468098746 2.3745544657564026 -0.6133451354758426
C -0.6235471951547559 2.2643815070397966 -1.5987666013078177
C -0.032201855769082195 1.0901673693387612 -1.7330902807296245
C -0.3518674328554125 -0.12214398596546383 -0.9430170639091628
C 0.8195827553234972 -0.4962485814616883 -0.044895991455139846
C 2.081300023447727 -0.7497063146615397 -0.8417761864521239
C 3.005965886249321 -1.623583406861374 -0.035443963861093865
C 4.101483131353078 -0.99147616696077 0.2570632377393036
C 4.018899767371724 0.3193469004463916 -0.3043732918018285
C 2.8773272605511044 0.5036830524750737 -0.9437891410362497
C -1.5928404859090468 0.005544138829272034 -0.22922738958865155
H -1.245068254918627 -2.6918259990739557 0.09666326660604063
H -2.6210338389927843 -2.918528321938931 1.1772316870300825
H -1.0062462717736895 -2.417243796593161 1.9013021060773039
H -3.4297350265539115 -0.6371709123924059 2.4901935423005157
H -2.9257390892839132 1.8183226216070973 2.038192855230291
H -4.118376676147571 1.3037937354651234 0.8142635832797451
H -2.212336468566466 3.306753763560964 -0.42119571808021145
H -0.3266900402024623 3.105820996359039 -2.1984994681432344
H 0.7418826309819033 0.958817530041447 -2.517447610491834
H -0.4002968573355448 -0.9542848873760043 -1.7178562817591503
H 0.6530458783341442 -1.3623795935751055 0.5835145780000711
H 1.024452419037287 0.3613495198206161 0.6370836232947586
H 2.7436439488929687 -2.6606471285746016 0.24656422275824513
H 4.941507935365589 -1.4287839924509702 0.8474499520364459
H 4.788144550589852 1.0973720952345092 -0.23174199999771078
H 2.5984780958124687 1.4426632464385698 -1.4492720821958625
