17

C 2.431202744845073 0.5589314041371379 -0.18428027958720347
C 0.9880003010271137 0.10297096723874218 -0.14024464428429248
C 0.19129965506716057 0.5224672642887984 -1.095443271730492
C -1.2134748907016681 0.14143123263644555 -1.141077120164463
C -2.1606721987203383 0.6741456149522062 -0.1313032368518945
C -1.6781388049131107 -0.7775593424212534 -0.07024657741539718
C -0.7086691071006369 -1.175058022853411 0.9375683369874737
C 0.5360341992510084 -0.7693597212880162 0.9112358824308805
H 2.7736810535466407 0.6737632164694701 0.8713994301345118
H 2.5269626365132423 1.5174355052376178 -0.7031282126556327
H 2.978098209440129 -0.23007978405683874 -0.7315344376373699
H 0.5877924675912722 1.189092608949048 -1.9002468408994673
H -3.2216660181161942 0.7880523288131409 -0.37919907577199
H -1.7702377785827657 1.2882542855036514 0.7156740542520108
H -2.4216850906376908 -1.5426738950474437 -0.42198684585681806
H -1.0629330349373072 -1.8495553574166796 1.7509111938248778
H 1.2244056564280605 -1.1122583051426191 1.7119016452252473
