19

C 2.0129619777281436 -0.5384181177223437 -0.0688306454142451
C 0.8133530696877438 0.31812023569133724 -0.22819040730611606
C 0.9911743574919539 1.5635133560336822 -0.6578976800605634
C -0.2331448241032133 2.398543536599245 -0.8076541702544852
C -1.1180018841595678 2.0781654091535757 0.34412112112779836
C -1.2805340020768567 0.8412792579621333 0.7948510804210465
C -0.5309221193225474 -0.2314054609680825 0.09203437807105391
C -0.6201276389699033 -1.6433107449344375 0.5140480159730206
C -1.244786567402313 -1.151847794751293 -0.7707631328541203
H 1.9135564751684362 -1.0955962555672487 0.882127241997845
H 2.950253588716678 0.0525128542023569 0.0008526097691964224
H 2.1337685755474483 -1.2522690181056453 -0.9249851361028542
H 1.9571930517407201 1.9900504962008663 -0.898221745728982
H -1.6463571246745252 2.8825774873957783 0.8296827919832191
H -1.9143375284224389 0.5728248760115215 1.6277405504545077
H 0.30956467730147774 -2.2499729029463262 0.36444932379441347
H -1.232063957496162 -1.9064628217739488 1.3756663553056308
H -0.8890143268064564 -1.5385006262620666 -1.731866102373692
H -2.372535799948577 -1.089803766219055 -0.737164448802652
