24

C -3.6855418061868717 1.262140960176011 0.012984428466394762
C -2.341723031708128 0.6647910021388403 0.12339636829988955
C -2.03400444365833 -0.4014535396626792 0.8295726847367215
C -0.5983373582551227 -0.6610932592821013 0.6704534096750786
C -0.2811363732391527 -1.952582592938025 0.005645550268933889
C 0.8705745399401587 -2.042431924632713 -0.6516972498696192
C 1.8578979213456972 -0.9627978984529365 -0.7734847195739127
C 2.317269350004211 -0.18166267542429948 0.3964865654104281
C 3.7362787504925072 0.3672644507797287 0.3626126495307412
C 1.322473718627739 0.4014936014460017 -0.5808332826491236
C -0.12096112200649951 0.4096700142334161 -0.23315263171923803
C -1.1386656712172212 1.1600933290384492 -0.5341230511046602
H -4.000305533127308 1.2660360490690081 -1.0580753348312653
H -3.67339705233334 2.3179449154024483 0.36637211187658997
H -4.410758823134633 0.7323806711494927 0.6545283610198823
H -2.7411510357197715 -0.9727912009377602 1.4201483372418935
H -0.9964609202256268 -2.7600065845764585 0.08426439482081782
H 1.0826717310472003 -2.991226292299774 -1.1287873328373959
H 1.9164321023893593 -0.3343915120880913 1.4099179206072836
H 4.282065937977768 -0.13984652865135083 1.192120731806264
H 3.753242274926634 1.4650890571173718 0.5121142507836313
H 4.256830943260517 0.15420844758595026 -0.5748536264632691
H 1.6908282123656826 1.162659603622744 -1.3108323003347544
H -1.0641223115748113 2.036511907194957 -1.1947782351492904
