18

C 2.1617942987030023 0.7520974224674652 0.049005558367686
C 0.7688236406096388 0.2643256962511174 -0.1919775745824373
C -0.20686829150645408 1.155335399508424 -0.0377077725942773
C -1.6640385498756982 0.9080479225100538 -0.22087168562950268
C -2.0358739806317994 -0.20916161475836617 0.6730987552864283
C -1.579805755738543 -1.4073905415514796 0.6630188485231516
C -0.4204012520555608 -1.7886973936534598 0.28475710294690726
C 0.6269905318619524 -1.1857344257489877 -0.583518617817281
H 2.0851522619379432 1.7296679988329269 0.5730115492144138
H 2.619162019423634 0.024712055967272557 0.7780735171634828
H 2.7165064440323707 0.8026616670428337 -0.8913071826511202
H 0.07419599873897076 2.162785113173331 0.24916571097388512
H -2.2176950390793033 1.837661182167536 -0.008824755761135571
H -1.8484402669241429 0.5756837500416193 -1.2836001044374874
H -2.7767147470857227 0.019641377246933777 1.4159180396687157
H -0.13473226055467172 -2.757752525353755 0.6779190939012506
H 0.2580978983299542 -1.1780812517769945 -1.6468227910754172
H 1.5738470498144626 -1.7058018323664645 -0.4993376914972408
