17

C 2.473851210545218 -0.22286172249121008 -0.09041161720098204
C 0.9978562094159892 -0.05208939104919237 -0.02268958674247288
C 0.1889792748025112 -1.059789228642572 -0.24108349328307616
C -1.2849211595078212 -0.9880559154553473 -0.1963332337957942
C -1.8986315000216343 0.3087282823835469 0.11522729592810205
C -0.9410008548942416 1.3849879323060261 0.3468359027989558
C 0.35578659949431624 1.2236864777748995 0.2851246642004843
H 2.781560801028815 -0.38815841847247107 -1.1379556690424655
H 2.7525395794066774 -1.0462855705584746 0.5925682725873915
H 2.91546469443229 0.7409667874486755 0.23300040818905177
H 0.6112654853749174 -2.028094245808581 -0.4738070885254158
H -1.6701985574328087 -1.3700089848892092 -1.191648467126222
H -1.6674462508512735 -1.798954285894524 0.5118554197429118
H -2.644954721967321 0.2224058369956444 0.9627706870386167
H -2.5845312690284348 0.5814030619749295 -0.7583715906896777
H -1.358406080475424 2.3931158995568524 0.5884272492213103
H 0.9727865396782198 2.0990034848210226 0.4764908466992672
