24

C 3.832361402270944 -0.35266122354335694 0.7204339915439253
C 2.3690527668476697 -0.15179968920416698 0.4289752320402975
C 1.8097156615560093 0.9953368606919544 0.07898314444580198
C 0.36573338971360086 0.7385483474568892 -0.10720155497648698
C -0.3982597526270665 1.7552914031358957 -0.46262759504744533
C -1.8225804230344604 1.9020223550421376 -0.7354298728412638
C -2.87636895546101 1.100613595323102 -0.873717327469177
C -3.002130209159026 -0.3776554005908435 -0.793655344634352
C -2.309039045616522 -0.8782664698256522 0.47264303193098006
C -1.024377503467029 -1.5704733181287462 0.17314302073118262
C 0.15602547568240344 -0.6732959197644968 0.17215439489533105
C 1.336552356766267 -1.180189089248013 0.48415090643153497
H 4.192989831583406 -1.1139272607183046 -0.011825675296514088
H 4.355988798789617 0.5994024479326218 0.6353246991369373
H 3.9178144613828363 -0.7940671437572717 1.7256591539151827
H 2.311257436916466 1.9553852916765624 -0.05047747178773715
H 0.17428994646691873 2.684680206153518 -0.5732700558701199
H -2.080512792326701 2.9679123978764443 -0.8574259440185197
H -4.026451262189379 -0.7301111371045582 -0.8747832986075899
H -2.435124810346805 -0.8287843425904732 -1.646719457205873
H -2.2075089943702086 -0.06706793999371483 1.2202042921627916
H -3.001960140287029 -1.6286507536997497 0.9201903542734863
H -1.1172489109175654 -2.114604125860338 -0.788734702258835
H 1.4797812718267875 -2.23763909125957 0.744006078506474
