23

C 3.176330919591985 -0.836897333577929 -0.7784688451248755
C 1.9479282563709992 -0.19942727770086405 -0.15852938416061513
C 2.147110711219213 0.6799120093225305 0.8044133095010189
C 1.0790883947615828 1.3782496109191296 1.4993557513877334
C -0.16053288073130895 1.1067621143091875 1.1350048024413744
C -0.4795241889857616 0.15648840906335262 0.08849619148890628
C -1.7441578163396376 -0.07335741876724332 -0.23211352803520185
C -2.822429316692009 0.643355246380058 0.4822617801436959
C -2.142569894634094 -1.0325446707358454 -1.2928051187463967
C 0.6078238998746968 -0.5550529970835202 -0.6196642208790406
H 2.899461720910842 -1.6884065022789023 -1.4067950068879371
H 3.8889759588221744 -1.157840845619732 0.004256633149658469
H 3.638318517797953 -0.044205813657462616 -1.3928572643713926
H 3.1651270820085458 0.9277732923530252 1.1305686291214594
H 1.2888547876816778 2.105454920743909 2.298272814325736
H -0.9672462454081672 1.6148841817785091 1.6388719120379887
H -3.8250409382431063 0.24883088823583593 0.26291210909254875
H -2.6789878897023764 0.5078500790783362 1.5874478092924302
H -2.7592692382329203 1.7177707846418158 0.19905620682029856
H -2.7782656149907035 -1.8344901101959192 -0.8293421466652972
H -2.707593033839944 -0.48348449898388746 -2.083628843026239
H -1.2815927123664006 -1.521579707998807 -1.775756490534516
H 0.5081895211267271 -1.6600443602255175 -0.5609571003714582
