20

C -2.670696592696191 -0.7531461564897957 -0.13226040321633784
C -1.484506931561547 0.14413992540360593 0.005665946657766108
C -1.4575560125408435 1.4398202573868055 0.1851469624760901
C -0.09424573177577472 1.9923004891515175 0.2774616863721267
C 0.7638819622992968 0.7907625323357769 0.12130016830715826
C 2.16027605509287 0.6393756427097194 0.11664293693936936
C 2.6957442763575146 -0.6150017771389895 -0.05057498553886431
C 1.8741247521501436 -1.7097958175471064 -0.2115442684995355
C 0.5104982774271585 -1.5327004274149074 -0.20294892630459846
C -0.0875202327324119 -0.2760597654265177 -0.036148708190681535
H -2.5231582093099294 -1.3154726575400897 -1.0976095649181048
H -2.5992640863582954 -1.515081597352829 0.6755461774239148
H -3.5942907765103227 -0.17191186251628068 -0.11957943455437425
H -2.3777736191918635 2.024274829798593 0.25522613305280906
H 0.08844251344984465 2.501209184217757 1.24923500729891
H 0.11535711872132359 2.7207949880542133 -0.5455540862013233
H 2.80171325902055 1.484580087791539 0.2409907490922049
H 3.7844690809486115 -0.7822239344174532 -0.060989998781863036
H 2.2843357350267546 -2.7065708656616607 -0.34459990141099744
H -0.18983083781682347 -2.3592930753439725 -0.32540549000362046
