13

C 1.8201065998651007 -0.08331067558810007 0.0024288055547695025
C 0.34669237403115966 -0.08251288926342129 -0.00928060256518759
C -0.36826591105018985 1.0306627267603332 -0.036574538481497706
C -1.82054982447141 0.896222605582316 -0.04548250077567793
C -2.3093422544513693 -0.2036436860890943 0.4477678797815278
C -1.6493535504118877 -1.2885977073881838 0.3893556624797511
C -0.39225594696497323 -1.343228648651463 0.008901611025125
H 2.146856812994395 -0.9913922543103368 0.549235819951165
H 2.2607610225634445 0.8089998608537211 0.48685902445697227
H 2.267466005152305 -0.14849520490804244 -1.0151588574477528
H 0.09780266826420349 1.9935785877724843 -0.05193846644265115
H -2.4642096890371983 1.6908379190142153 -0.4510343644417477
H 0.06429169351642504 -2.279120633784442 -0.2750794730947875
