16

C -1.987783566843162 0.20700806639913547 0.21610712325559547
C -0.7092889511372462 -0.2446806454003405 -0.51922981694852
C -0.057979834898896354 -1.2655751941681381 0.2951939113237362
C 1.3113539489252144 -1.0519262074206999 0.6631677702905685
C 2.041844809877764 0.012736663634340199 0.3167128970360588
C 1.3629734505759328 1.0102150809502703 -0.49539282436041093
C 0.12005118218614785 0.8930705771133961 -0.8726865083116357
H -1.6284567900833482 0.7064331039103081 1.145452628822647
H -2.506175149974643 -0.7433881287840617 0.46341160057034486
H -2.586061878172356 0.8863998219770715 -0.4126096755565875
H -1.121807901939351 -0.6644360797402845 -1.498730708229638
H -0.7335773924850315 -1.6438147639050271 1.0840643226737365
H 1.8002244279577417 -1.826900032805856 1.2805093719666303
H 3.0640740566590807 0.1405597378571479 0.6093227034426375
H 1.9615397265444143 1.8864975940539312 -0.7817935427415718
H -0.3309301371922608 1.6978004063287964 -1.4934992532335842
