14

C 1.3800603750310956 -0.1628617980637206 -0.4253892870820408
C 0.5168905238007822 0.535248901514291 0.6049076293061126
C -0.3533066504955004 -0.49258157055457846 1.3488927293050614
C -1.3307695307403473 -0.7930594802924124 0.2531093380654035
C -1.4646533917273106 0.2609052111794851 -0.5437533624705031
C -0.5904975191411328 1.339893724513213 -0.04120338199104694
H 2.3652085841564943 -0.39163019067268356 -0.004197410870416173
H 1.5200062159781804 0.46258409419582314 -1.3461982860793
H 0.8846966028227574 -1.0881077664796748 -0.7679531058406909
H 1.0755491738904293 1.1644548467608693 1.2908484232769546
H 0.21790632161468126 -1.3597637942294445 1.668638701889515
H -1.8391529643531215 -1.7525914700284653 0.1576195562681777
H -2.133214031027694 0.23608415710394107 -1.4007015162058505
H -0.24872370980931766 2.041425135053352 -0.7946200275713954
