17

C 1.9540326140711035 0.181992735293455 -0.5537893051476861
C 0.7269402546052748 0.17798162242093055 0.3069940821510198
C -0.2468479665059603 1.2204464270437152 -0.2362246575311312
C -1.5667177861032031 0.6687228899151875 0.2369585328324788
C -1.4208994436470062 -0.8035179706530551 -0.13170777900681768
C 0.0009879219899047306 -1.1210542613224812 0.3290787006112865
H 1.9468053655225157 -0.6107696567318056 -1.3312533373611384
H 2.0084892656090476 1.1530962800400948 -1.1171224591524644
H 2.8764780773142262 0.16253892963108915 0.07045670961123839
H 1.0318203153590848 0.4872818006929085 1.3291364521573044
H -0.027529847211496913 2.2147364106945138 0.16729428452148207
H -2.4028653282603214 1.1477540661538184 -0.2834315821695918
H -1.5910160893103724 0.748470606488358 1.3305379943765907
H -1.4800593596389156 -0.849599435946263 -1.2327533297315565
H -2.1713423932275644 -1.395842317979955 0.39425646309525236
H 0.4226586627619178 -1.896677536466969 -0.335030438635199
H -0.060934263328218295 -1.4855605892735468 1.3875709907782237
