15

C -1.5407969072983982 -0.21040349405718953 0.6437759807915113
C -0.6438524927539718 -0.006237816842306704 -0.5829349248709396
C -0.01501523533482875 1.3625164107263923 -0.4842698983114432
C 1.205399747168224 1.092300409174883 0.2988640011220737
C 1.493477988809776 -0.19447080645747242 0.33152551503294014
C 0.49129761831432517 -0.9829523417201762 -0.4373208458175198
H -0.8801898037874768 -0.44006357794343787 1.5001140628032255
H -2.1613074878939464 -1.0996070719403037 0.4196788679245852
H -2.124304313646395 0.694756488813802 0.8502558385353721
H -1.2055932639603004 -0.09659138379882182 -1.5112189998057952
H 0.17853754240683728 1.8235672337584337 -1.470603622489803
H 1.7919059822225685 1.8578546992519196 0.7866652130742061
H 2.3449741027994873 -0.6240410967357433 0.8479744116058211
H 0.8681154097006435 -1.3378132330364616 -1.404502556246438
H 0.19735111325344784 -1.838814419193518 0.2119969566521975
