9

C -1.095001946472195 -0.1424207099052947 0.06089892969157621
C 0.274664029216622 0.4045867764210757 -0.2769762301530861
C 1.1657739845977502 0.6899869836647099 0.9079006019663174
C 1.4727479854955872 -0.326816761113464 -0.037990662517844914
H -1.082775470389564 -1.2253319103754454 -0.19311672736663119
H -1.9088984693808808 0.35350569086292016 -0.4960944325756976
H -1.3384013225848648 -0.01031600174450808 1.1452757969007694
H 0.2366133548551044 1.2854197826461893 -0.9747190588744165
H 2.2752778546624497 -1.0286138504561861 -0.13517821707097485
