18

C -2.270339116835275 0.16936214033474667 -0.50230684019347
C -0.8058056983376727 0.05593680244601514 -0.20795709076661864
C -0.23137158625283566 1.228455319423858 0.5161054185807167
C 1.1978049752675886 1.4060317974765968 0.09040489187947472
C 2.121321225624864 0.495738734859263 -0.18657884714614317
C 1.9788572790216397 -0.9584013136011249 -0.1468087583581787
C 0.914792917479895 -1.6830565567811795 0.16238979469711273
C -0.45459973846429774 -1.194492275637052 0.5620145783036987
H -2.704105868343336 -0.812555761149264 -0.7200684585426738
H -2.374684825033631 0.7695024078437245 -1.450048488214038
H -2.7757311907640445 0.7390079442735492 0.2810975331637771
H -0.27380047600231416 -0.01812693211728713 -1.187450400261107
H -0.23951451291480982 1.004257768367462 1.6146152172262638
H 1.502703889025833 2.4461893132538757 0.0014651866031216167
H 3.115023249699488 0.8691429957025696 -0.4821208070211165
H 2.895212026032704 -1.5100908027570796 -0.41448062556198534
H -0.3905796609615421 -1.0091917149647263 1.6517682600762376
H -1.2051828882423277 -1.9977098669739273 0.41795943553489906
