12

C -1.7732056948260235 -0.08160381409685734 0.5176468236878711
C -0.4147656174931364 -0.5728826292497448 0.07110681997244785
C 0.43858103949321947 0.32140875301234006 -0.7908021381283992
C 1.9187725964323754 0.268805439130144 -0.436867562617073
C 0.8157745874012055 0.14532376151985987 0.6196413930957704
H -1.893856870418818 -0.42931585468150557 1.5781606237598904
H -2.5372663027896096 -0.5513129882171617 -0.11636268858190893
H -1.8550307711044278 1.01967614620544 0.45920249865485635
H -0.3019039690243089 -1.657769284533791 0.05176911823898329
H 2.5219549125223195 1.171585844716172 -0.4685238929841356
H 2.4119272701910126 -0.6413177047544297 -0.7951317576207022
H 0.669018819616275 1.0074023309495048 1.2951859355615787
