18

C 2.2164192175641264 -0.4280402766053241 0.21775730771093843
C 1.0059281762784498 0.49935051204331105 0.41121556788713876
C 0.08770366553663259 -0.15131810813146274 1.3092903180192585
C -1.1037989689112084 -0.6727844955933834 1.2579676924098304
C -1.9221559715240866 -0.7130935777806366 0.025024781228739013
C -1.943160735347133 0.5536810126121134 -0.7097263611792946
C -0.8617610725555812 1.2256871741334159 -1.0859573962039528
C 0.5508288829922315 0.9413209538701891 -0.9036373383602422
H 2.6854879232488518 -0.2513665393077525 -0.7848492196507751
H 2.9949573295859913 -0.2427654759635427 0.9686931894080989
H 1.9096920643446014 -1.4943348116758446 0.3146369800114535
H 1.4410598335617797 1.3912151237085875 0.9563247051924751
H -1.535988319202304 -1.110680078885796 2.176336004851983
H -2.9570781913743502 -0.9610625254029926 0.33848260197249747
H -1.6190760812257974 -1.5784993961814529 -0.6376379379763345
H -2.9175023184477045 0.9423848269251776 -0.9477086017422854
H 0.8526062420342164 0.18079381439359082 -1.6844422319406882
H 1.1158383234413403 1.869511867841979 -1.2217700616387495
