14

C 1.6218573564464354 -0.10662837577459919 0.12102794571900241
C 0.16531451594179297 -0.30227252620197526 0.34597820651701594
C -0.6648971815222999 -0.6010482658844456 -0.8948181174747805
C -1.7632000843127231 0.2666473760368573 -0.2617120988544015
C -0.6489437414977064 0.9937449166460597 0.45949604062033417
H 1.9255462883330134 0.9343572422940195 0.37337976953263846
H 1.963601776677183 -0.30911023573532354 -0.9128430826306658
H 2.2146132659785054 -0.7994185937629839 0.7713115795703939
H -0.08067161652139511 -0.9942857829087717 1.1679374140135685
H -0.29505989314205366 -0.14838869548325312 -1.826642083019052
H -0.9448992376339046 -1.650017270607577 -1.0360600902060306
H -2.44988805669338 -0.31378086253963167 0.3872248268726519
H -0.21752705763347283 1.7789248102258743 -0.1962583609051565
H -0.8258463344199867 1.251276263695748 1.501978050244482
