16

C -1.5980063547449872 -0.18952802268858676 0.8287977925782165
C -0.7151384665088772 -0.43835771733635953 -0.3792149532263068
C -0.2920385286238632 0.8198119320953308 -1.0038851051483315
C 0.8790027290459236 1.3820652276927368 -0.7353015793805956
C 1.8374366191699896 0.7429493141679215 0.23599232048227706
C 1.6099665739789843 -0.7412069241276125 0.2148977731970689
C 0.440572735265691 -1.2811788857495816 -0.06715316687227961
H -1.9179377484708744 -1.1742826422813972 1.2170048735738577
H -1.07758824747641 0.4186178704581052 1.597021334844007
H -2.492518121303216 0.3560562092947476 0.4962813494778391
H -1.3752709006769979 -0.9838139541184578 -1.1166653733650096
H -0.9378291848720136 1.349920053259438 -1.7267028636043042
H 1.2092781381377655 2.307027247360191 -1.1834427598997384
H 1.6132945677325876 1.166878213213652 1.2395023439940671
H 2.4601532224226186 -1.3631672903987297 0.44480619573671565
H 0.35662296692370316 -2.371790630841451 -0.061938182387458
