19

C -1.9985134980643808 0.39128893692369215 -1.0880628730879196
C -0.9108504173600371 -0.34979760642971575 -0.34346873167792746
C -1.3573019033942157 -0.6281745702286549 1.0810048229994453
C -0.24113842675355784 -0.6573006504332305 1.8421687945499883
C 0.9002878396571053 -0.4131432957828777 0.9887198574055324
C 2.138413568737644 -0.5483523333450607 0.6652882624516407
C 2.4249280454141773 0.18462457373330643 -0.5803014772181632
C 1.298249768670814 0.7926861094534949 -1.0039917556909985
C 0.2765974188022116 0.5020874755208105 -0.06523601512051337
H -2.0001379412458142 1.4317293214595126 -0.7054703435007724
H -1.6925444161419523 0.4136217119607607 -2.1534911797241594
H -2.978955719894894 -0.10147406671648415 -0.9448146337249904
H -0.6309552823767891 -1.2986289425900397 -0.7966614074565974
H -2.3611378017250817 -0.7781854438479071 1.4469289299010535
H -0.24820349991850232 -0.8451502825920798 2.896553641188523
H 2.869827828044401 -1.1268336331594935 1.2431900677193144
H 3.3809186947497625 0.22884130667408864 -1.074882130764221
H 1.2328033497647857 1.3826613664006129 -1.9001897706077733
H -0.10228760696559078 1.4195000229993595 0.49271594235850286
