17

C -2.266171039669981 -0.3421824071776869 0.2357829120475712
C -1.0818349961085643 0.3794157210669342 -0.42522557976816266
C 0.04832308250515625 -0.38073982946619345 -0.7384452165872344
C 1.0356001712211536 -1.1846929005444382 -0.07397861068353319
C 1.944992753234392 -0.3572361514525124 0.4430544943843276
C 1.4776307662690535 1.0553569060988028 0.07395342132896973
C 0.02604809998552455 0.7584268544986982 0.33236501540812163
H -2.549137973171109 -1.1801801798195364 -0.4457980791502075
H -3.1367848203019673 0.31150682578695915 0.34448053965812153
H -1.995193788791749 -0.7018229132968996 1.2530115258781156
H -1.4964459078650898 1.1242906534487145 -1.1622291407671848
H 0.49788943984178485 -0.10471549748721574 -1.7542123947480652
H 1.1287710275154186 -2.27694672699806 0.05032190426069269
H 2.8425174582235395 -0.571459049209905 1.0113614779065974
H 1.8838992150057114 1.7666144175335576 0.800887724183906
H 1.6742560235765944 1.2770627969055612 -0.9717604216306699
H -0.03435951146966106 0.42730148011330793 1.4173150124586027
