14

C 1.7026098581642266 -0.24814132896419044 -0.21124982270215417
C 0.3738257165768411 -0.22154947568601804 0.5494849230830962
C -0.6185289662225195 -1.0697199579985237 -0.1387093304809866
C -1.6296614053943816 -0.3129903088564196 -0.503857649678553
C -1.3808615168976706 1.058228822822196 -0.09110444748157236
C -0.21940481995499433 1.126745111780968 0.5227480631101081
H 2.4653273121218944 0.23133019797324544 0.41443951874094825
H 1.9724042725339532 -1.3140956482577624 -0.318927620406799
H 1.5576507192691083 0.27442682988888156 -1.1759854033713084
H 0.5592052534168774 -0.5677708397129495 1.596331328938494
H -0.4923483675924194 -2.156661799670412 -0.2989168453182082
H -2.49353496693443 -0.7194144015031405 -1.0341362273596189
H -2.061039041577559 1.9030486712525345 -0.26712310438643216
H 0.26435595249106547 2.0165641269316072 0.95700661731298
