17

C -2.034801375618975 -0.04833429910748118 -0.08349617342976326
C -0.7693729990780489 -0.1716750210971535 0.7464600499018983
C -0.032908057684748755 1.1041862628962698 0.6003077679212118
C 1.2020110990393755 1.2178683288148953 0.16270838845351968
C 2.0128690478260003 0.027617734796466464 -0.2448397479587128
C 1.0040280982153114 -0.9704961659537029 -0.8308574602793284
C 0.0897925339461095 -1.3237889268280039 0.3268087379692535
H -2.3443092577170344 1.0211095230476483 -0.20443740672082483
H -1.8373786485695152 -0.4205329120366112 -1.1033245978354778
H -2.8895416686663298 -0.5573044202169035 0.3968980303414563
H -1.029358300407802 -0.276091428551097 1.8186575177567463
H -0.5823665637717818 2.0137248827905863 0.8862436920415084
H 1.6402899355312783 2.199151881535446 0.09681545543937382
H 2.5133736921286443 -0.391027371097158 0.6483994395620669
H 2.7582001787761268 0.3301552630170095 -0.9968826543622705
H -0.48048823202872576 -2.2140404560704328 0.033947559338105636
H 0.7799605180801152 -1.5405228759397647 1.1936316975059356
