15

C 1.885989013897738 -0.1482338606096994 -0.2581944913770627
C 0.5936244107978754 -0.0462650477434236 0.5018404229113606
C -0.171406193190431 1.1984077678222282 0.6112663475521752
C -0.6046616294672266 0.22322918953387266 -0.40547258955459664
C -1.7448698158917577 -0.7246149740672521 -0.18111069355692894
H 2.76956769419899 -0.30567417402394204 0.3734573468002268
H 1.9865275898501098 0.6821707060776883 -0.9703444782652332
H 1.8013925899218803 -1.0786868846507474 -0.8941217170968245
H 0.49123917084913815 -0.7930732335944805 1.3100733203620207
H 0.22828621383792042 2.1802030094903646 0.2870858438301202
H -0.8534602607021882 1.2912153003661495 1.496411138366172
H -0.43369945277646116 0.4999184288687086 -1.453052806601206
H -1.401321811412913 -1.7324301715750716 -0.5307239590637188
H -1.9283203110333569 -0.7848928957514004 0.9001971631981003
H -2.6188872088793183 -0.46127316014296366 -0.7873108475045949
