13

C -1.4422823879476956 0.14554419229941848 -0.785631845362168
C -0.37055437091996657 0.038521883418063035 0.25669992643831413
C 0.7157340119589127 1.034168865103316 -0.013826526072256276
C 1.6296071479431007 0.08298194616429108 -0.17198921731722328
C 0.6588986473411483 -1.0175314246456626 0.07793397485016985
H -1.0471503226490277 0.46948997451764757 -1.7598205615244336
H -2.0095440657193584 -0.7999910600527016 -0.8718201159359236
H -2.1390198064342285 0.9583927753042489 -0.45003940012384724
H -0.8122820325477236 0.1084631737259165 1.2779018238837934
H 0.7018722105826064 2.117966450418195 -0.0529363039630669
H 2.6888397394419967 0.12612545778932097 -0.39977166973175426
H 0.8782813319993942 -1.5551242400065166 1.035658615058261
H 0.5475998969508505 -1.7090079940355345 -0.771963869262934
