15

C -1.8047298433332437 -0.008019592647784903 -0.1488099464240203
C -0.4260193533717766 -0.01600477728841159 0.4124943447702372
C 0.5244200747209606 1.021742655962401 -0.15228829828789942
C 1.6134275196201178 -0.01051001062135492 0.17970569870621472
C 0.5267014670023418 -1.0414354608144327 -0.1685450894482736
H -2.233178576400125 1.0204342039183345 0.036739220571489886
H -1.8796523758669048 -0.2106489358038483 -1.2201678021317062
H -2.4266851648469143 -0.6856617689602305 0.47051795832732496
H -0.41011371120878237 -0.03568125621944322 1.4965200181646336
H 0.6192564836797506 1.941141384209986 0.4219452879730292
H 0.48757412375729997 1.1227019713928599 -1.2542087450399344
H 1.7616403650338242 -0.01686644857148034 1.2620837430995262
H 2.4711451983099533 -0.0034841657513341165 -0.47799110120140764
H 0.6765466789041596 -1.942267066005734 0.41437203304224457
H 0.4996671139993166 -1.135440732799529 -1.2723673221214675
