15

C 2.1010033843263525 0.21745039942290198 0.058900238117400125
C 0.693729975615583 -0.013223812936813024 -0.389313706685963
C -0.33569739149555533 0.775081342450699 0.3178255180796662
C -1.7481533947428682 0.6240076078346738 -0.2346987032255425
C -1.6995393239709142 -0.7994803744296625 0.26352818495259017
C -0.23347556904029013 -0.763167898161854 0.48450535821486407
H 2.7232837032952593 -0.6779308993400652 0.08579232778636636
H 2.5589335352003593 0.9588005383040484 -0.6446222401706359
H 2.1551961368401464 0.7134539625914279 1.0631049339981717
H 0.574384629467055 -0.07898598057403709 -1.4972399232308957
H -0.16668385158591342 1.3091331109755826 1.2499151686460928
H -2.4502582104255275 1.2904201593610738 0.26246191461664187
H -2.234927980025999 -0.8417542128786982 1.256871046533196
H -2.1162016003545814 -1.5667598865335237 -0.38695382649250826
H 0.17840595689685945 -1.1470440560857436 1.422282366980909
