18

C 2.331067042927405 0.33272302088893413 -0.472856476343279
C 2.253342805071684 -0.22255255351871256 0.8961905856571576
C 1.2677594384478745 -1.0122724447664684 1.2615053423009186
C 0.21082113332172475 -1.355770326644021 0.2849185954228182
C -1.0090595346465958 -0.5466623293822769 0.5009844266592429
C -1.4963767956618292 0.25216770313479525 -0.4293290297309776
C -2.7137365156939275 1.0766013301606103 -0.25005685489882035
H 3.003537381727465 1.2303323607964922 -0.4734757485897685
H 2.747351354298035 -0.4290564233640306 -1.1929891623961182
H 1.3454613218716258 0.691624327222137 -0.7925672942507582
H 3.02031876410781 0.026029660179005727 1.6068608774593867
H 0.6281746834555939 -1.2298955383584853 -0.7303695453363603
H -0.03427999393476437 -2.445494829244646 0.45725719280558974
H -1.5126906729323795 -0.6146649964438133 1.4495567271750185
H -0.9723904542675316 0.3050307492968975 -1.3779470133734324
H -2.6136724518014014 1.987189293943487 -0.8747418141104532
H -2.8317847320215654 1.4329813701956573 0.7987477396901227
H -3.6238427742692685 0.5216896259044731 -0.552857269990409
