19

C 4.2109949900349 1.472158143376465 -0.5319065748822104
C 3.556729221880738 0.15096716238109043 -0.2981373787433759
C 2.664359266933599 0.07869852836605469 0.6823604035789647
C 1.9931909724847685 -1.184911002826943 0.9572553298231017
C 0.7969241695253564 -1.4556551611573518 0.5170601752114132
C -0.4649287083291837 -1.5260190250591135 0.20214116125865084
C -1.737523829832578 -1.4099248817136343 0.07058220458771078
C -2.9963476319719704 -1.0710255760432013 0.07950593741818598
C -4.205348428884039 -0.6386091633225237 0.29005325904633816
C -4.562191677420441 0.7549049199232003 0.6426782230531817
H 4.033014386441536 1.7707166015811706 -1.5805420060042712
H 5.301215303413136 1.3147428640642604 -0.3535197001533768
H 3.7895243415242432 2.264290273509057 0.10379634007851753
H 3.839563366195788 -0.6602949404571467 -0.9279868361608011
H 2.527775383472444 -1.9116295788422337 1.5519083118519195
H -4.996235359487291 -1.366423161660052 0.19586343940154774
H -3.5872735999477565 1.2933617270847353 0.8191276963113452
H -5.118003053484392 0.8280276800791638 1.5928312878716693
H -5.045439112549087 1.2966245907170626 -0.19274216171500008
