33

C 4.780287625622699 0.15172332300831665 0.6069292838474585
C 3.501239702082505 -0.1910818805144747 1.3320025253598171
C 2.344171094965062 -0.1908055497826221 0.7214983509926995
C 1.1050868847553748 -0.5254774197009568 1.4344639385767126
C -0.08132975575850662 -0.48799225494254045 0.5122330850963923
C -0.651853868856442 -1.662579758272853 0.04453943234636029
C -1.735708813268258 -1.6645418590020096 -0.8023258233994947
C -2.296422736323605 -2.7733466308700265 -1.2597965610209128
C -1.7248243212385963 -4.065693120456679 -0.8358076735130295
C -2.2702704801575773 -0.4405640676898847 -1.1970673579223416
C -1.7324037946648616 0.7499359020407889 -0.754399095394423
C -0.6362628555886403 0.7056630851331072 0.10118414864071948
C -0.29252514385302325 1.962002370640633 0.3934815992170607
C -1.1772478774886264 2.9039027406952918 -0.27996457495693217
C -1.1247884137496094 4.405459290531326 -0.21064731674023926
C -2.033053662560017 2.1624777478511668 -0.9626451198572089
H 5.337833121511832 -0.783246775197856 0.38025535613058203
H 5.348067174776176 0.8066181240129225 1.2725225313979331
H 4.484052733022446 0.6122952795214879 -0.34155497387099487
H 3.602530736928392 -0.43666311630090276 2.385720302914812
H 1.1987906331281364 -1.514986094251316 1.915791390950665
H 0.94127268551638 0.20440651734791848 2.262618616021986
H -0.21423307092945434 -2.5792998696608476 0.3690742692904944
H -3.149423336420625 -2.7525414375062316 -1.9259475556119656
H -2.0208010770186897 -4.339185500123167 0.21267327390396906
H -0.6281983846177414 -4.081459341797947 -0.9461405562041071
H -2.1569751446026353 -4.890744445240743 -1.4643893679062183
H -3.1220169459408735 -0.4242747623328098 -1.8628869545388511
H 0.5286676724724626 2.2283383785327993 1.0404024986975375
H -2.1222779962045704 4.840222748323618 -0.10183057927180138
H -0.5295762918304282 4.7154100467287385 0.6715699368710788
H -0.6309702772071738 4.804637035263781 -1.1251960109335313
H -2.840835816501744 2.551391294012104 -1.5863610191142992
