17

C -3.2573461340764442 -0.30686655666855356 -0.1831003022152485
C -1.81483539356476 0.03953692757797521 -0.26972696951388175
C -0.8923739657326307 -0.7076420196536992 0.2708492551037782
C 0.5294487896401893 -0.3806173711915172 0.19431840105484605
C 1.5518919428632 -1.035580802593565 0.6869252050868568
C 2.7926809169151183 -0.3433251699505261 0.36982063511187774
C 2.503845162543987 0.7419801755329352 -0.3232349231947266
C 1.0528995075079712 0.8168505919707494 -0.49651884640205646
H -3.810072784843965 0.6595383229952554 -0.014592700035308192
H -3.479296989042836 -0.9264437798148276 0.713849611779792
H -3.649955135396903 -0.7384900621772232 -1.1205249646070299
H -1.4981218442183053 0.9381146816003101 -0.7947818707370724
H 1.4442859821530163 -1.9607570450673155 1.246666299936605
H 3.813602048421426 -0.6559989583085777 0.6517056922311625
H 3.28456376507246 1.436735016416138 -0.6822426448498106
H 0.8243390505982937 0.6672663366577517 -1.5872099352603661
H 0.6044450811601598 1.755699712674677 -0.11802387807006436
