14

C 2.0225802821831 0.07291408500208386 0.11800167179054606
C 1.1555436813822189 -0.7289502862897156 1.0195667129196366
C -0.15320280834522834 -0.7835462440106606 0.8267138611318976
C -0.7374469773970354 -0.025655983040662994 -0.3109584930952024
C -2.1734258488718763 0.3623157219921 -0.0552745065425975
H 1.679115455446457 0.04126439927487491 -0.9346027381621101
H 3.0804939057156844 -0.2971040515216211 0.17601576253859239
H 1.9998922739874792 1.1264820542089506 0.5241898718737464
H 1.5505777717969549 -1.2970916829687746 1.8636773937822944
H -0.12842585626209863 0.8969414897175427 -0.4255260952758638
H -0.6881203130152853 -0.6705942988220939 -1.2188967095242986
H -2.8384073815291906 -0.5189751436327468 -0.1593111630857747
H -2.2906839775919634 0.7259334903555301 0.9820127596789623
H -2.4784902074992012 1.0960664497351824 -0.8170523889174577
