13

C 2.3154174966782888 0.09400731037112327 0.4108136553312664
C 0.8767311168499089 -0.25585230594329345 0.2690282932819072
C 0.11357723703651881 0.4803766807405533 -0.5240504543491824
C -1.3076977261966958 0.158308804989834 -0.6824637319907035
C -1.911067775562615 -0.5735554685077667 0.46164846798019554
C -2.2178357457900173 0.7324619055672111 0.300954996847951
H 2.46631730332642 1.1401307707086012 0.11594854544159751
H 2.8787549691954597 -0.5837306462029294 -0.2891755722123898
H 2.654574541043751 -0.12794455455719886 1.4249263831808165
H 0.5136759045056722 -1.1129578828018214 0.8319728441056871
H -1.6292065574361558 -0.07354744898824483 -1.7118999026263408
H -1.994791068587501 -1.4976252886554848 0.9842821620664087
H -2.7584496950630584 1.619928123279421 0.6433610029822895
