19

C 3.420990502345936 -0.0813300539027747 -0.5134077822074393
C 2.5954827842225887 -0.5375302051383286 0.632527007183725
C 1.2859762597166058 -0.3217615004394541 0.6493484133870093
C 0.5696665373091627 0.37512894951930265 -0.4511634786975992
C -0.4854678750631398 -0.5003655369468561 -0.9381633382126393
C -1.593534984434882 -0.537214882571845 -0.22628235712903966
C -2.6702279020421535 -0.4398490872820913 0.5261941338982887
C -3.5964137643802574 0.6134467542127833 0.13892577052507898
H 3.359667246694741 1.0388141260812578 -0.5183341740382077
H 2.9831344694928155 -0.45085815989288536 -1.464536450076946
H 4.464076686221117 -0.4399808609246339 -0.3898455139217382
H 3.047438141006178 -1.050733375912013 1.467831664138433
H 1.2993279655189804 0.6803333969898476 -1.2484363204183249
H 0.18284738996997818 1.3218441586053475 -0.031063243197574236
H -0.5195417484618329 -1.1251433324332414 -1.7832914431593887
H -2.708212789039072 -1.1432318216687787 1.3090985636504608
H -4.042138691232291 0.341086158844241 -0.8476860763548993
H -3.1655043858439234 1.6238597518754074 0.07141331934901603
H -4.4275658420005986 0.633485520984675 0.9015418242581308
