16

C -2.9200302222520365 0.3240883768681058 -0.03880497253340878
C -2.0778631436974075 0.8889799871810087 1.0399898455086092
C -0.8394713287481573 0.48266715877691757 1.2715718687062252
C -0.29396556589809364 -0.5498591994957455 0.4387524456020161
C 0.9947992259693348 -0.7763258278078407 0.5732378619642184
C 2.2908652002792795 -0.850150728679211 0.6925444274291195
C 3.08131958842894 0.03524711832460225 -0.18329356942109526
H -2.9277232649308016 -0.7800153003951564 -0.025344291135856407
H -3.947866602025139 0.7300644738171975 0.07898061548948553
H -2.576493914935919 0.675778810504926 -1.0421245840827422
H -2.4509000681115767 1.676881103843051 1.6990639082798384
H -0.7600671697548324 -1.1668625816794536 -0.27580898796702863
H 2.6214462761198822 -1.541511751727653 1.4108634372318307
H 2.6045648928411587 0.08268709400022638 -1.1804076275071576
H 4.138309447249766 -0.28713580361655044 -0.23766678602582605
H 3.0630766494656956 1.0554670700856121 0.2802558560015144
