23

C 3.1262938414921626 -0.14041908449309895 0.6675633078916622
C 2.296731338302481 0.9843764169723723 0.15645410543359634
C 0.9809687859392341 0.980086195926567 0.12771566958769867
C 0.12112391513369629 -0.11454462178926267 0.5863299321862533
C -1.1124147402236162 -0.13256981175114593 -0.32449936635316784
C -0.5650414148872714 -0.36621689799861773 -1.734895678245413
C -1.7910420079074538 1.22280395807771 -0.2516658077765278
C -2.090313379943269 -1.1924440840371686 0.08105984023367233
H 2.536547292972224 -0.8141218032178275 1.3074802676398356
H 4.030155625955211 0.26491204226266796 1.2077786318444321
H 3.568676034994199 -0.7143146306487059 -0.19579001326718296
H 2.8164562596170164 1.8609052905397372 -0.21468664764882744
H 0.5773552689590566 -1.1100252391481802 0.5255601077708167
H -0.24843174720036762 0.06479651505420794 1.6141696569610267
H -1.3649217456649345 -0.5436367614767201 -2.4631154590036464
H 0.1650528761465525 -1.1871145860448988 -1.6568808201479517
H -0.08233972389857463 0.6115478622241972 -2.0223384380974987
H -2.7167229514608335 1.1455881959598648 0.3499142909994392
H -1.1033585756117164 1.9484180511442963 0.2364441478663189
H -2.100316356310035 1.582571397891341 -1.2706946888118962
H -1.9936820932123827 -2.1000821895924378 -0.5777861222662819
H -3.144361243494306 -0.7983991762922168 0.026383124223720418
H -1.9064152596973831 -1.4521170395625869 1.1356817446436767
