29

C 4.936976693196789 1.43835699105935 1.2597370646508335
C 4.6148262878079525 0.0017539541736356487 1.4258026923990699
C 3.4181302983688013 -0.4167375220899367 1.074676411777615
C 2.4631162757394343 0.5267082195591971 0.5430692715540153
C 1.2571598302017264 0.08240651834421393 0.19357954160335872
C 0.967382157280737 -1.3219570387104138 0.3648972987354081
C -0.1854251744607262 -1.8351488240259421 0.0482352228442515
C -1.2591684377983372 -0.9886471218137799 -0.5072715645644563
C -2.001669126020228 -0.3444543267820831 0.6404317062872132
C -3.1264669215272454 0.5511111825898904 0.17445983051814565
C -2.656113739520483 1.6501314076585751 -0.6764678180085151
C -3.1914834107446715 1.4917516727664129 -1.8634607602188094
C -4.03465660481018 0.311144372695242 -1.8957421523329754
C -3.9987251794172627 -0.2415790626063889 -0.7046095457495138
H 6.0208497269817585 1.5603716856448886 1.4285997568468451
H 4.364549790612095 2.0072594166730044 2.0463394943743083
H 4.707268341037333 1.8095483748052816 0.23793650226043242
H 5.36544091927575 -0.6927799357579815 1.8347127607119829
H 2.690167475585936 1.5763525039848265 0.41892433729914724
H 0.5135512898800858 0.7924178872893665 -0.21553549352109191
H -0.30836368048694884 -2.907599234747972 0.21467321455284977
H -1.9335635540705953 -1.668253485031148 -1.0910942114281783
H -0.8238198308408344 -0.2894949478842649 -1.2235072138979324
H -1.2815676031031713 0.2366429549751852 1.2443615759365023
H -2.365717232799969 -1.1602263826033892 1.2942801278285452
H -1.9924327667405075 2.4361736821983997 -0.3684482849846335
H -2.9963184867982675 2.1850174367204307 -2.6846433578931572
H -4.609212086350335 -0.058484900260760614 -2.7757198432689716
H -4.554715250478656 -1.165879599975159 -0.43821656431217093
