20

C 3.57428399391153 0.7335353440160614 0.6889130855677631
C 2.792040605258249 -0.19572105545934557 -0.17134495043276668
C 1.468419379868485 -0.15382337444009514 -0.05117897767558793
C 0.6780295546444032 -1.0795996563694805 -0.9075597833961293
C -0.6936324559940761 -1.329163533012352 -0.3391111038894715
C -1.4861798132653283 -0.08453654659219142 -0.2100679749953976
C -2.6699457956141255 -0.11848011963853787 0.37039925726355255
C -3.526176910763554 1.0982461499109823 0.5360043338316524
H 4.542441438293012 1.0036755394331822 0.22189826447237543
H 3.036652221243199 1.6647291277289478 0.9135374613995911
H 3.819975176365602 0.25140910655331955 1.6608540987988394
H 3.3107084645672558 -0.860907655770324 -0.8517033694255842
H 1.216587930275699 -2.0580843987874777 -0.8878619575928844
H 0.6782980289163534 -0.74028060757959 -1.9481483896778256
H -1.2498932846188493 -2.004865647942638 -1.0087060107526329
H -1.0712599485857262 0.8274713989760482 -0.5978744958874939
H -3.0980009450509804 -1.0411652855739297 0.7667512961080419
H -4.554834365676151 0.8687616121207907 0.16342475359626665
H -3.136050815487848 1.9737236822834185 0.012820245550857878
H -3.631462458287072 1.245075920143205 1.6389542171368032
