19

C 3.2586709969381253 -1.94163846988539 0.5702271234052867
C 2.590203230403588 -0.6262289668181747 0.4238048311888092
C 1.981947107534878 -0.34044347474071324 -0.6963972561484539
C 1.2935484807672868 0.866643451248337 -1.006984009968289
C 0.0008348789431032161 0.875070022639782 -0.7303960966148658
C -1.241420012519079 0.7910760064175646 -0.3830604518085001
C -1.7590994074295274 1.1464827816218206 0.8898234785653885
C -3.082526540167918 0.8942662405758378 0.7992105887619938
C -3.3953857404057293 0.37732423495946865 -0.5399017822750177
C -2.2584713318128973 0.31948709623478827 -1.2530254391991176
H 3.1847595245750524 -2.5198810763901673 -0.3629615664099603
H 4.309744006985608 -1.8381559090390194 0.9281497019561936
H 2.6416251869595215 -2.5119538787554943 1.3250373055372113
H 2.6081278989552046 0.09321463139835048 1.2452084976550006
H 1.6168191143249762 1.7759562287688258 -1.4231235367174244
H -1.3136321500627495 1.5345027253627725 1.7938223150833796
H -3.8251978391239962 1.0352217672403237 1.5623206173545758
H -4.380364632608378 0.09414361108961587 -0.8823540229946394
H -2.2301827661095044 -0.025087018034792585 -2.2594002978402856
