37

C -4.567722623375792 -1.7479793736806972 -0.46438746720526736
C -3.1201544225263063 -1.5034867359415462 -0.6935149539944654
C -2.423955602310918 -2.2792569154906492 -1.52451294479116
C -0.9558656087090691 -2.0375779264471556 -1.7619599933588077
C -0.6822084004840555 -0.6272590068913645 -1.8460449767208855
C 0.11680612132471681 0.10636464679440447 -1.01491107091777
C 0.7302739835635682 -0.6259531227557451 0.03890104546619548
C 1.5779163592592438 -0.20674397456869906 0.9160387500349821
C 2.147825306878079 -1.0921105560350672 1.991636354702686
C 3.4772707288986537 -1.6500585775168461 1.6216531027730252
C 1.1483624892715723 -2.1248882169226024 2.4134165819667444
C 0.2551333254811034 1.4868741858692607 -1.391749683829852
C 0.45912786561227903 2.592377098142858 -0.7390503809738935
C 0.5820665182176894 3.9226966373495267 -1.4077374829081324
C 0.6603380763382337 4.852266549399742 -0.47693551045317933
C 0.5996744892580117 4.262328086176617 0.8423173999920502
C 0.481403584872206 2.945054477480114 0.6685016343906205
H -4.720798835898386 -2.3684089992993487 0.4488614051081001
H -5.006928980923657 -2.3037326079945757 -1.3289710609369798
H -5.144820224541746 -0.806330665932839 -0.3461061883868231
H -2.602799149600874 -0.7006934676391466 -0.19817640544712053
H -0.4134109755765652 -2.66383665942811 -1.0804753213833054
H -0.768729760973117 -2.5340845896361817 -2.7915297581373624
H -1.144082220275588 -0.04504094339806398 -2.6448881422592136
H 0.4760172917186541 -1.7112104873890055 0.18248663772781365
H 1.9867916858480208 0.7792962816142999 0.9176885974718484
H 3.7959716487283304 -1.4763886147962673 0.5948166573457053
H 4.239949699640894 -1.1689455388805146 2.298346758661696
H 3.568199216084778 -2.744942155711723 1.8416409714818252
H 1.441607497701803 -2.4813294084243966 3.423079765188834
H 0.14820704136591148 -1.6779851965476686 2.4837522766004962
H 1.1109774579014744 -2.9597520007712945 1.6733853274127848
H 0.16845322172523416 1.6051696348388336 -2.5368338389898395
H 0.6017544836614735 4.058178064503935 -2.4637276501980647
H 0.7571714608205731 5.921616551880909 -0.6189329021324762
H 0.6402057922457038 4.7693815035585265 1.8181563910017127
H 0.379971458778001 2.236392024490187 1.4911285262294203
