33

C 3.913033648976375 -0.32903073958788387 1.7260929092953605
C 2.756191960823436 -0.6992353249580511 0.8492822032036628
C 2.9932926305055227 -0.7171317805027394 -0.45803910168735
C 1.8955790988344798 -1.0771269047595293 -1.428357968979573
C 0.6208203914991108 -0.7855915592580041 -0.7349331362486385
C -0.2214834948279748 -1.807615854177304 -0.5547751451253704
C -1.475035190444811 -1.5737628862972861 0.1082847654107576
C -2.331648026502306 -2.5668346694193396 0.30691625362094105
C -3.6072485679157884 -2.2593169555104766 0.9969911328649036
C -1.796275069715235 -0.21368663690234077 0.5652331050467142
C -0.9614194459374894 0.7700296528636207 0.3782051734002529
C -0.8950300055952081 2.224770710596932 0.6597649002391346
C -0.31966343137115416 2.68684273603615 -0.6698508187283134
C -0.5243054693013544 4.008264772641261 -1.3034038190405814
C 0.42373567417734576 1.667167187372542 -1.1838730178503245
C 0.37414786573763753 0.5338982805692463 -0.25418921072886436
H 4.362837016408401 0.5961810546516831 1.2648564015968287
H 3.6153547365820806 -0.11388843283278027 2.753375268072471
H 4.635309864893233 -1.183067474547559 1.640815027537437
H 1.783290528788758 -0.9378333400338296 1.2657441640557303
H 1.9461096860189286 -2.141651339034922 -1.6888511343642876
H 2.00463587228625 -0.48503715769146294 -2.367397881938079
H 0.04502500342898878 -2.7994388389636216 -0.9077812905449079
H -2.1340419351395887 -3.578185946759342 -0.012711126690940412
H -4.171983466543515 -1.4582392997901288 0.48225656998433664
H -4.237839392067625 -3.14258884728995 1.1345681767288642
H -3.332225421815577 -1.9024596121314759 2.022395752832889
H -2.759773821472673 -0.05685820122511183 1.0671851411771849
H -1.862301240965648 2.6828575975505946 0.8515772532277631
H 0.45989738720001416 4.39194684551955 -1.7013383058585405
H -1.2526385191004399 3.8825387833721536 -2.149712700912534
H -0.9132815930696094 4.71211590784204 -0.5399461362180418
H 0.9669327256253473 1.671968272668214 -2.118383403370579
