17

C 2.5708207257579274 0.43269183788208515 0.6019181625602459
C 2.0985187012216353 -0.48495266033948653 -0.4403542410424731
C 0.856516275691131 -0.9029372985694314 -0.5989687616367322
C -0.27731516536309797 -0.4985138000131811 0.27354199097701987
C -1.4123094602404127 -0.0837070315499822 -0.6594719450213384
C -2.632722354458299 0.35269287571673386 0.0767552357931923
H 2.9022567071512735 -0.17986317702134616 1.4754768129359594
H 1.8055294793158976 1.1710920372105014 0.8933361661945798
H 3.447715050262716 0.9934313220229873 0.23831990057895858
H 2.8296210819515637 -0.8636255937652078 -1.1555027209167508
H -0.025272777968159323 0.2789340296232284 0.9985562541388256
H -0.5750144546456027 -1.4256726652263603 0.8464855754188289
H -0.9856399854536232 0.7440649661616081 -1.2894352134972462
H -1.6127580877243077 -0.9752362365513697 -1.2971545540383154
H -2.4663133611846115 0.7178995132007252 1.0886616402069182
H -3.418454029337836 -0.4564414891219328 0.07530778684143351
H -3.1051783449761987 1.180143370340393 -0.5295527347209711
