26

C 3.7468387767600646 2.0805366627977144 -0.36886459277997224
C 2.966957672104057 1.0343386733281732 0.33555610317884055
C 1.986301953806243 0.42931347418583843 -0.32440081949453864
C 1.213398602408526 -0.6176515378330085 0.3957482448200356
C 1.5345838844312152 -1.975283362929081 -0.06081291123651426
C 0.4348047880155426 -2.5635376190824455 -0.47076147716218897
C -0.7062208892197087 -1.6618383153246548 -0.3263612725497582
C -2.059454275507377 -1.873754736885551 -0.6378902646196363
C -2.9450691582869957 -0.8449575740400511 -0.4018593156221095
C -2.4783090748504923 0.341183444803163 0.12498654060838034
C -3.4424417789128796 1.4393584212742343 0.37373671583442847
C -1.1582131917029839 0.5312142004609066 0.4225894513484736
C -0.23679694031519102 -0.48316794846586875 0.19812405244669562
H 4.716136077541144 2.294460774204714 0.16070406844377133
H 3.1955514971926067 3.032779200898224 -0.44935513249106573
H 3.9438420780318175 1.7350127658211403 -1.4018093903576594
H 3.2187225728700253 0.7879902084645661 1.3789049660013488
H 1.4130259932003242 -0.586404122376502 1.4876119369185414
H 2.5094500819711185 -2.461308111970563 -0.07704220980497302
H 0.38093201030672086 -3.5886873545129427 -0.8662500834588307
H -2.394282123859696 -2.8256361368344725 -1.0538803317701257
H -4.011738797478195 -0.9728387825645506 -0.6326782283758847
H -3.0400776967395977 2.162509682591964 1.1353940921053085
H -4.403242614195123 1.083602334735971 0.7572742545676961
H -3.6232057005666927 2.0459372462113192 -0.5379504837701539
H -0.761493747004868 1.4568285130409127 0.8392860872226273
