22

C 4.666876656837494 0.4427206661788117 -0.0027013550685597953
C 4.018024449954081 -0.8675536837856248 -0.1655967851194134
C 2.7557961146122354 -1.038743688722643 0.1804710920876336
C 2.012809015291279 0.08833932977903984 0.726521639445734
C 0.7256623870501671 0.22519698359566284 0.5670193126832372
C -0.5727598393546576 0.2401582118627895 0.46385642814500644
C -1.8313295387472592 0.011041889565261143 0.2536769107901541
C -2.5458066924345504 0.21708056098991524 -1.0242146029853083
C -3.964195709783352 0.3401621314205293 -0.6196318241088208
C -4.140954057038176 -0.05713018306376092 0.6225754301071981
C -2.8460118720055796 -0.4993527835543456 1.2068246976011798
H 4.873815291423975 0.5832566203502996 1.0980983480289515
H 4.016523726948533 1.2802587100411276 -0.3025505135053649
H 5.635471627186347 0.4731249044316848 -0.5589437607032258
H 4.551864063449241 -1.713687837844312 -0.568068241478825
H 2.562262675650901 0.8349096385035911 1.2847398274671527
H -2.376045817103457 -0.6363793340477386 -1.7310174880804368
H -2.2060597061893383 1.1273833474542034 -1.5583868562368761
H -4.788813316305055 0.7127318666630162 -1.2538379459823041
H -5.06861042810685 -0.08621495159658944 1.2031258023734752
H -2.752810241304603 -1.6064461128182788 1.247900697950932
H -2.7257087900315757 -0.07085628540254033 2.2211662010034483
