21

C 3.2382273297496584 -0.7212155675733017 -0.510460642402502
C 2.763280674186011 -0.5524058967286037 0.8843919005059058
C 1.8163396679986166 0.32509002659480235 1.1701505096157852
C 1.2467509168245912 1.116121014581674 0.127795635240165
C -0.0225928365976431 0.8907963641879197 -0.1426898288365826
C -1.2615438445012843 0.6128782764466079 -0.29848354737177585
C -2.352128295708176 1.2573874532266114 0.39710854495540093
C -3.4931860682010667 0.33352654625104844 0.140851313702585
C -3.167630855668157 -0.5953175921098791 -0.7494936365747175
C -1.7468582944692794 -0.40090825114939044 -1.2027731868234652
H 4.308022897912635 -1.0596791925731253 -0.5217364158864155
H 2.6020648803916977 -1.4736428437186992 -1.0550579137793974
H 3.1290611117624856 0.23267998810384238 -1.0554551995736214
H 3.1686042296032766 -1.1309255012308497 1.6981439512300154
H 1.4589540767972697 0.4601920515552275 2.182560316865511
H 1.6632871879837716 1.8670653868325402 -0.4823560092076521
H -2.1442915826891817 1.1925255062683922 1.505796808847778
H -4.4512464496607675 0.44390331208999323 0.6416231501270913
H -3.836186311420882 -1.3772761913138494 -1.0940941095162635
H -1.1955651203808721 -1.3755713298980772 -1.1063561132688804
H -1.7233633139164886 -0.045223559842848884 -2.2734534976645997
