19

C 2.4942323574894254 -0.6213530218443768 -0.3354114343518581
C 1.3995014131777193 0.32791651574499714 -0.047841190293098156
C 0.16191120765865677 -0.08948061294284416 0.021658046020713227
C -0.15636190309877493 -1.5007519568784382 -0.1838669095969867
C -1.4486051689490873 -1.7996105991543268 -0.08869360744314322
C -2.4560346461548312 -0.7848673408759778 0.19904446196025194
C -2.0909906645691354 0.4161196136176943 0.5753987608271939
C -0.8926885661758923 0.8739579917997733 0.30609489632696246
C -0.6371462228500435 2.3360107497872415 0.2960694538207424
H 2.7014860950968598 -1.1835648164997188 0.591630643122338
H 2.238059312941207 -1.3569103449987285 -1.1313180893958954
H 3.3619025237881197 -0.02306675799705852 -0.6794220209328256
H 1.6345610722748196 1.3611603981614446 0.10398768578382546
H 0.572680734038098 -2.258413005908521 -0.39560901325076026
H -1.769040865417846 -2.809716896302771 -0.22521075106029648
H -3.4941707840996004 -1.0628245285415325 0.08963093082205074
H -1.4979972583969208 2.9002206630308036 0.6372796287607145
H 0.23408313074047554 2.563103344091736 0.9721508413999559
H -0.35538176749322337 2.712070605710681 -0.7055723325198642
