16

C -2.6311963406296295 -0.08380659787385396 0.23091603328274363
C -1.8608562422028467 0.9600980586563657 -0.4914537577077694
C -0.5465303445405353 0.9402049518505133 -0.3940893335289759
C 0.12614484370888912 -0.0755265933760187 0.3982426452368679
C 1.4903947513926163 -0.3992875412489509 -0.029477791965358664
C 2.1882267974469864 -1.3096926304911047 -0.8003699484765003
C 2.9573937995129906 -0.2240441710686105 -0.10144232350170114
H -3.695882504850772 -0.060744129084528004 -0.0872514401438645
H -2.6537009606796604 0.12134878644247069 1.336624657125214
H -2.2307734397272414 -1.1016583578158141 0.08743280261963388
H -2.3960389418235555 1.705716769650675 -1.0757028341851296
H 0.0150921217668261 1.7040040555954477 -0.922774251189773
H -0.008524388308476908 -0.0009702916212199189 1.4883000090131617
H 2.244291084031106 -2.162987470107122 -1.4406186921475626
H 3.61554306918355 -0.5867728839115173 0.6924238892122316
H 3.386416695719728 0.5741180444032581 -0.7373484688182249
