22

C 4.0501603563701805 1.2389600388583317 -0.559093103897217
C 3.043893122832112 0.1520819465715555 -0.5558727179210848
C 1.8431166494414142 0.3457917835620218 -0.06090491998558352
C 0.8095460447814831 -0.661824056635567 -0.021775296222309753
C -0.3725878150888399 -0.38880649418895924 0.4926181416278685
C -0.8815842838816733 0.8229089235950284 1.0745883991608127
C -2.1837209377548055 0.7986096401636282 1.2203539428574128
C -2.7085252229677708 -0.4703608658816622 0.7377519088770517
C -3.5871299731180804 -0.3824687798689516 -0.4623368449944434
C -1.5225788115916727 -1.3589462762287634 0.5858749738684026
H 5.005988662157267 0.8554210203275499 -1.0002329692433642
H 4.254944512110592 1.535967383385962 0.5067546878163468
H 3.6979344819102797 2.1461922425524684 -1.0610255108219604
H 3.2788075418087845 -0.8282414396253539 -0.9631882616227618
H 1.62461152823157 1.3398317668453343 0.34506983223488064
H 1.0125457267679867 -1.6417894687347327 -0.4175231166060358
H -2.8103823274616824 1.5911835400539718 1.6362913635850624
H -3.399808462570436 -1.1803564747120991 -1.2176207137323256
H -3.604314102138408 0.6255920699948836 -0.9388913167284528
H -4.645659544607889 -0.5578416490092418 -0.11370160589739967
H -1.3532539645399981 -1.968423318310229 1.4824499058167033
H -1.5520031806900096 -2.0134815327152342 -0.30739974889717386
