24

C -4.03631532270529 -0.7420108980501362 -0.18371754488046282
C -2.7810025088606127 -1.085781852531085 0.4991796610342874
C -1.6982897088639788 -0.3739973997513151 0.27358279106700284
C -1.6733764107096745 0.7619601713936794 -0.6361091229600506
C -0.537445492721874 1.4617546295095272 -0.8235742582464094
C 0.6432965777046357 1.1357577930156488 -0.15651812070965224
C 1.9497274030905076 1.0500899331149487 -0.7745324343163099
C 2.8011562380054507 0.3477210130733922 0.008784663212657534
C 4.231878762120843 0.04655178159510048 -0.2878289718556479
C 2.0736825673454704 -0.09557658255084021 1.2555878606332063
C 0.6320756206760034 -0.020664612557091976 0.7390465191188047
C -0.45402739838045625 -0.7154565116210129 0.9509292995170493
H -4.88591807949869 -1.2052272031796984 0.37785016619054324
H -4.05112298272473 -1.045268239415026 -1.2495673887208127
H -4.242861965309947 0.35364824081558205 -0.16658764046913727
H -2.736001885983894 -1.90903821238337 1.1788299057207063
H -2.591372929835545 1.0311724926213701 -1.159166560191808
H -0.666883916131576 2.297569316953861 -1.5515628440508455
H 2.258088243336619 1.4738297052667677 -1.7348380987500875
H 4.90424982391142 0.7275694641357366 0.2719545851886435
H 4.440120118017387 0.22350759506064763 -1.3624829651203296
H 4.469722293584531 -1.0315548612169811 -0.10955277105458203
H 2.348022999447045 -1.1345698034634053 1.4633004458481127
H -0.3974020455142265 -1.5519859598350725 1.6458869175060047
