25

C 5.213158084426729 0.33307855499781724 -0.9449831042425497
C 4.429231252437636 0.21300451350626112 0.30516584587454054
C 3.241432225954219 0.7279659769710405 0.36859212400218716
C 2.0094508915422558 1.1394854607522957 0.27347016892218545
C 0.6984349413721296 1.2301380168151153 0.32956849148442663
C -0.12153439774982207 0.8696536082265205 -0.7967699417495044
C -0.744648559238122 -0.41122021549704885 -0.8232218483686656
C -1.979448989604672 -0.5672562523924054 -0.3742501319363712
C -2.750994345908037 -1.7958244480057124 -0.3317880383860176
C -3.7486686984293174 -1.6151859180845989 0.498643411098582
C -3.7411022530538016 -0.25623415454289616 1.088306690436297
C -2.817122840165071 0.5240472856590277 0.18225871145770373
H 6.210353218636957 -0.11238998506068844 -0.8559667921926317
H 5.296151533612989 1.4215718778050432 -1.1824556548832597
H 4.59936453024265 -0.16362367010585577 -1.7453796972586095
H 4.858152948642309 -0.3011645415819755 1.144495741483325
H 0.268439026326176 1.5836539684585502 1.2493353058688652
H 0.00482393962377303 1.4273693326708803 -1.7190140058076413
H -0.2325370364371873 -1.2820488847908056 -1.2063853579932844
H -2.5024815782541996 -2.6951607042863666 -0.9131097166706109
H -4.510366770573829 -2.3783716034147755 0.7378780817578566
H -3.36156709835762 -0.23723322632016203 2.126107657093371
H -4.767744304498435 0.1455402567919864 1.1043555502218179
H -2.1740974085759466 1.2308554173567037 0.7213401053102715
H -3.376678311971762 0.9693493340720385 -0.6625048308629768
