20

C 3.277752181632152 0.05869704234736708 0.6575086789842853
C 2.480598683578134 0.12389007851810264 -0.5644677579831748
C 1.1973810257200612 0.05736520806401178 -0.41626970313826983
C -0.06499741545841989 -0.031939710247985524 -0.1722162089812215
C -0.7866311843970284 -1.2780417976445746 -0.11618430130676603
C -2.128439652060244 -0.8554957626293703 -0.6851388644101336
C -2.307499385222566 0.5665798033440173 -0.20761786672858762
C -1.9602686186873914 0.8466846159966782 1.2049123145765925
C -0.9070935346671092 1.0993011609247911 0.07663519793311477
H 2.768816666190878 -0.41929652224620867 1.4806864050406605
H 4.206397343422411 -0.5468308301982063 0.4524514497734032
H 3.661572898106388 1.0788854870399645 0.9172963290826421
H 2.799792744999007 0.21836040297600542 -1.562652814331001
H -0.9832646907005469 -1.5282791662447575 0.9632163760121972
H -0.34244520593943845 -2.1263589967729333 -0.6647043753441937
H -2.000100015190262 -0.8564009263038277 -1.8032017223223782
H -2.9458484576702118 -1.5199184523875917 -0.3568744801918322
H -2.9745807628273266 1.2397738596327004 -0.7842960750987229
H -2.3250530602325705 1.7395804296587227 1.7339739084905483
H -0.6660895605959902 2.1334440761730287 -0.1530564900571074
