15

C 2.139377875424728 0.16239464744082033 -0.786992556708609
C 1.399129417838212 -0.45717894611460025 0.3563797249239103
C 0.14496431025227158 -0.11644329489732268 0.5170332089260635
C -1.1213654217526947 -0.303043757650918 1.357205111910407
C -1.1058761747297963 0.5831087169422651 0.21819904949593244
C -1.823571936292547 0.3782276482494617 -1.0624137421073854
H 1.4368198782161572 0.46820625333035326 -1.5749568120034494
H 2.8307391839492495 -0.6109097220083607 -1.226208372406304
H 2.7271729660083044 1.0377403956174638 -0.47321072178287577
H 1.9178093417020698 -1.1536328125395472 0.9997193415514138
H -1.094306920136039 0.1773046464432007 2.375318325665794
H -1.4326398422663056 -1.3441506038289093 1.3763210336159875
H -2.307229282139784 -0.5926505301107071 -1.1758242408355093
H -2.6052813217228232 1.1755474358396585 -1.1528355501777836
H -1.105742074351047 0.5954799232871341 -1.897191144060831
