19

C 2.869133050776686 -0.6292220510668586 0.2863921966276622
C 2.4036995666405323 0.7434584160707091 -0.10814331152405905
C 1.1476108237697455 1.1029657283476424 0.060454305599294586
C 0.20631273473169584 0.12128433425064507 0.6480940295099495
C -0.914581628427526 -0.19759968330697775 -0.2511606317880456
C -2.1764705909601516 0.021576261205148804 0.08237012195861673
C -3.3194452339563405 -0.2943257713680849 -0.8130167402143786
H 2.76240380637452 -0.7289825312509485 1.3837263990307347
H 2.372127087174523 -1.4204012438057236 -0.2891528127767543
H 3.952776009895206 -0.6924768725082193 0.07196120855412366
H 3.108558341590843 1.459213775954961 -0.5410704281512952
H 0.846062913127099 2.098534270755852 -0.23431713676124102
H -0.227867430475644 0.5924194941135383 1.5659775004314362
H 0.7831387274944309 -0.7866161363898942 0.8935922804676861
H -0.7059589945711395 -0.6265190151119732 -1.2203999344327612
H -2.3939533402318722 0.45070710557902777 1.0508204893537352
H -3.703172427315037 -1.340510756326147 -0.6389402251345195
H -2.8923965910506575 -0.3268681056629185 -1.857576800586904
H -4.1179768245869175 0.4533627805202225 -0.7920099788669022
