21

C 2.7490809148872573 -0.9984200657494846 -0.027293754633631456
C 1.8121172911152716 -0.39138775111927837 -0.9594569585226967
C 0.8878933274879414 0.3641886624143532 -0.3994709484088058
C -0.0224453961986978 1.0600792826577816 0.25421174754956505
C 0.3509368666164236 2.4474210253585387 0.45175823522834635
C -1.2042050160979807 0.3258929832662418 0.6501238964328583
C -0.9879541091600277 -1.1116577220667483 0.8887357776313779
C -1.8719914041623489 -1.7701476952006794 0.18269087512286536
C -2.7033046057719217 -0.8191855834654626 -0.5459764998734858
C -2.341015476026572 0.4196048606056088 -0.2965770791984686
H 2.2089261618454064 -1.7742592345972552 0.5646289105933019
H 3.2074607105983053 -0.24166361398987096 0.64523462435964
H 3.5374156932776506 -1.5312758445435275 -0.5993131282383741
H 1.7252458449325527 -0.4364442237601377 -2.0020256981924107
H 1.326009853014141 2.633104030177379 0.9001914210503422
H 0.3098936865988938 2.99419438057669 -0.5252773703632079
H -0.44361896501930465 2.9444838593101776 1.0822606921688867
H -0.23386444078470986 -1.5317965146106227 1.5314526127402388
H -2.004603921119531 -2.8390174708912785 0.1167608206713695
H -3.52613091396242 -1.0652116826994664 -1.2182650415921317
H -2.7758461020702208 1.3214983183273457 -0.6943931345252674
