14

C 2.531850958329803 -0.20280736138127617 -0.16638822496410077
C 1.0590735746501885 -0.36022133408123 -0.21860908085294214
C 0.24570213214771722 0.510080362540512 0.327717117715368
C -1.202672063251532 0.3982075436300578 0.30216283516481507
C -2.4242393266053557 0.7895353429589741 0.5724370907053445
C -2.3700563157710106 -0.4264226226645641 -0.15973279142511057
H 2.8572964129622864 -0.31014637065345857 0.908289876657147
H 2.84362580098863 0.7816160372729329 -0.5747253037866206
H 3.020195474427346 -1.0139940657971387 -0.7423647102214854
H 0.6307795640411262 -1.2131392754385595 -0.7187763184033077
H 0.6842179938824653 1.37935884843824 0.8374237996327342
H -2.9997219408671425 1.5878688531550784 1.0686906122588007
H -2.4682705744430375 -1.4433703868668926 0.3206390932787388
H -2.4077816904915523 -0.47656557111268294 -1.27357106531135
