19

C 3.4259622222641553 0.6026160607610415 -0.20439658763735236
C 2.694835739392072 -0.35485683666710494 0.5497958991237286
C 1.385491902473644 -0.274144231266339 0.4527807945068216
C 0.111163535670891 -0.23887059255925133 0.285219945099093
C -0.9079497897948593 0.44618272944946213 1.0034684150275979
C -1.9519676823908854 -0.45155530357489987 0.34631686724791816
C -3.0601443607004137 0.2559294343100435 -0.3557508794873271
C -0.8339129096962004 -0.8055818047482217 -0.6115500455333311
H 4.382066404277353 0.8975300974787471 0.3160605706678493
H 3.7653287415937315 0.1453287523778178 -1.1775843563994088
H 2.9269671744337686 1.5522507274271866 -0.45461471194189923
H 3.0504550950471176 -1.1034713470569322 1.1621420802104352
H -1.097314023825477 1.4935916571700518 0.6779214123384931
H -2.2340413152620946 -1.333477335530749 0.951027036012473
H -2.893064486361222 1.3509139343690622 -0.23565838306181758
H -3.052363653740108 -0.02603653441506157 -1.4322705750773248
H -4.025518705340447 -0.07571543566897634 0.05376522497901881
H -0.7810463579586732 -1.8723338157903973 -0.889111198611818
H -0.9049475300826866 -0.2083001560653357 -1.5691441514225364
