19

C -3.043698933662135 0.30426392422779924 1.1943484679578675
C -2.4003379918089123 1.0059988428337265 0.09362882765118583
C -1.4903723160879798 0.3303148002735336 -0.5672766825280422
C -0.5446355361757985 -0.3835734772985737 -1.1067080151056057
C 0.7608309496564435 -0.2604603874256643 -0.49301526953584246
C 1.3982219872742496 0.8647617950409004 -0.22724443555875848
C 2.6909424865414038 0.6353953175428488 0.3916225165913416
C 2.8511190194662577 -0.6644722858331914 0.5087275927423118
C 1.6579689245131761 -1.350561414289913 -0.03392835173293645
H -3.915591844929256 0.9278211489254288 1.5362649638596535
H -2.35807551332752 0.10868946880258347 2.066765779965301
H -3.4912264549555014 -0.6341850290144402 0.8053094971224493
H -2.5449264943377163 1.9848529102895998 -0.26737816555011223
H -0.8497935465915134 -0.9659366170435905 -1.9261721534666052
H 1.0098926491740825 1.8492988714048246 -0.4422615580246131
H 3.432944673368872 1.365730443963663 0.719438822338145
H 3.7165267477800445 -1.14777084145886 0.9335071784376513
H 1.9428719745398735 -1.981766338952225 -0.9134455055228127
H 1.1773392195620365 -1.9884011319886503 0.7531268968446501
