26

C 4.8376869032058805 -0.6624596787991872 -1.3266848101246154
C 3.983820095276365 -1.1906755407012877 -0.3177187989940596
C 2.7288353926567064 -1.0059691829809092 -0.6334724376959091
C 1.4496505871276244 -1.1737568697135317 -0.8391500364582493
C 0.727422959154924 -0.05966982757548326 -0.38228785511491936
C 0.4578695392770859 0.23179635733779064 0.8886812442960789
C -0.3007310464543782 1.4110480804709127 1.2883663739566857
C -0.8199020967126669 1.5481954205811286 2.6535989171600955
C -1.759871820340232 1.0956337634429565 1.5963145353030115
C -2.931802175818383 0.7014297017958016 1.134190643104567
C -3.0935476931797132 0.37352083210787035 -0.3069918171614618
C -4.572463888308573 0.46692576856884443 -0.6323693271397088
H 4.815692486062703 -1.1993043705060655 -2.3135033110943644
H 4.661990156067625 0.4264422364045809 -1.5634768711140907
H 5.9094751631461655 -0.7104618651047832 -1.0077640163536123
H 4.33559968560211 -1.663147841469809 0.5578959537939445
H 0.9891925047883926 -2.0120585523270362 -1.2820132720821122
H 0.34328567213881866 0.6442637446999945 -1.1246062611637972
H -0.13635039580229447 2.3615834907181896 0.7303868714900937
H -1.0069541841777736 2.5887941233649876 3.0483283090703104
H -0.5576644023855709 0.8525562994175601 3.4789427554819228
H -2.671029363182028 -0.6100713126875044 -0.5785683968166425
H -2.5914400725387474 1.1457071044978002 -0.9528014153273716
H -4.877847917705367 1.5234118210977918 -0.7531276459395285
H -5.153984845213001 0.029894784622304434 0.20631337605036854
H -4.766931242688225 -0.09168804823506883 -1.5684827071263443
