20

C 3.7076469323834007 -0.7775166687717788 0.009102304064166133
C 3.6098736574279 0.6626053027809666 0.24517290382676213
C 2.4725145380185336 1.1620100204841324 0.6321075025281677
C 1.2586075205542857 1.6696529611719781 0.7856236891595163
C 0.4942311829474631 1.8791062095335898 -0.4241818893374643
C -0.4609787058652571 1.0376860585865024 -0.7341796473701087
C -0.8296628663070347 -0.10542899504419617 0.037714964061963514
C -2.1152268664418887 -0.23375462576248587 0.302557169606248
C -3.4143596874654345 -0.33096216474674833 0.4228318719575443
C -4.109044093455933 -1.038679254656524 -0.6406523350593699
H 2.721559937104302 -1.2297851043672101 -0.2163373766950611
H 4.03942083603525 -1.2585820950288775 0.9731820179945919
H 4.475467515839343 -1.0481689644619876 -0.7649331752515538
H 4.433959712644007 1.3304381204090956 0.1106641830678917
H 0.7213465055773817 2.718103141614267 -1.0465572747974707
H -0.24288552191392546 -0.8834919436282556 0.4415255998534378
H -3.7872641480742977 0.12992249999396197 1.2954234254473238
H -5.175745130188349 -1.2045349367372868 -0.31024253218699127
H -4.174346893650878 -0.46657055844548645 -1.5953549517861514
H -3.625114425168834 -2.012049002923433 -0.8577410263718506
