29

C -4.779388518691901 0.8112888906857915 0.8635869880797837
C -3.6975478429946036 0.10218210717792041 0.11843352058648976
C -3.0132694147965613 -0.8925141158407385 0.652976091927476
C -1.9497542797843235 -1.570025132433927 -0.1156113911607601
C -1.8143686483999812 -1.0333853276872902 -1.4780264780095362
C -0.5884722640097508 -0.5811162200021976 -1.6468264510757151
C 0.18990905876274541 -0.7730951559679365 -0.4316953128441067
C 1.5971572798823506 -0.36779284227577674 -0.2893161711216799
C 2.1443961334783386 -0.6033647630483262 0.8761005637035795
C 3.4606630210444487 -0.4057006051591798 1.5220047198866549
C 4.543570075012296 0.1992396757873455 1.1423336153181247
C 4.54404987969143 1.2496922550336849 0.37463240273227066
C 3.8339109335314983 1.6532226032375645 -0.8183886791336459
C 3.057639905192945 1.1411172207240396 -1.728542935757255
C 2.161714041473339 0.23421629669463065 -1.4930853632240069
C -0.5972720203151543 -1.3412682121810273 0.44392176634438446
H -4.651214192251304 1.905076732449211 0.7045896471840739
H -5.7599326923114065 0.5601060614084509 0.3841892652712209
H -4.77569785844124 0.6053503523460971 1.935701256924574
H -3.514422220186548 0.4659109408765514 -0.8986131938412298
H -3.244590495411207 -1.2004906142152336 1.6586761456155101
H -2.6245111298746377 -1.0275272870556076 -2.2078696073848745
H -0.21622022639292635 -0.11878510477099258 -2.5855417610019042
H 1.4993013295958622 -1.0603872883982632 1.5763966014258375
H 3.554463687906626 -0.8404622902674814 2.49253798220378
H 5.257839214901071 1.9739385830150948 0.7474293788725489
H 3.9992490836531807 2.7049417629220995 -1.014135337069057
H 1.7475693402114123 -0.1589714521294887 -2.395835324999397
H -0.36477118047571744 -1.631397070925118 1.4494307350098128
