34

C -4.836079843734798 -3.090458353503866 -0.19851703145949823
C -3.480647087892013 -3.000504423478159 -0.7502253431152724
C -3.0242376068839225 -1.7964836238046125 -1.009649697291862
C -2.6366400084756028 -0.552656313638576 -1.087795025324621
C -2.009823623284422 0.035439434047563424 0.09600774315514694
C -1.9143425646505634 1.5379313888254242 -0.12818029730176678
C -1.2760172667841256 2.235320870132112 1.0264829681919359
C -1.2282185545819804 1.7928859766966454 -1.401173947834632
C -0.14558299185652865 1.24552062996184 -1.8657499051110156
C 0.6606833015161786 0.23817373701608632 -1.2365934447347442
C 1.6223486311406623 0.5590813411463785 -0.4182198202290089
C 2.7474783271313945 0.7605316603191699 0.20331255047485797
C 3.925914173006526 1.0612213557733121 0.670731308230998
C 5.191768840033919 0.5759318730875731 0.06070794575248868
C 5.863537896376376 -0.3774545245035411 1.040756565469778
H -5.496686179255954 -2.3682341196294514 -0.713747379593171
H -4.785793030433984 -2.762114001210578 0.8751409191756541
H -5.295519709954263 -4.088767698434158 -0.3066856209611219
H -2.7928768865009763 -3.763723182896999 -0.9775239180675881
H -2.829008815880368 -0.10638724557673661 -2.022687832460986
H -2.637875602203619 -0.07265918292376676 1.0119293448940705
H -1.0433263893731934 -0.41614886372072746 0.35678512345021474
H -2.972349018061552 1.9474483563771272 -0.1764844917355515
H -1.7080994614545575 3.2750863739786604 1.1035052716617886
H -0.17993225466232873 2.3437100689671664 0.961975719864491
H -1.5039921939084435 1.762492720914106 2.003522488931223
H -1.6858247304378744 2.5516638163188476 -2.059445017883151
H 0.45873992827119076 -0.8234255477364885 -1.4557264710354954
H 4.014147519256603 1.6933296543567853 1.5444737099920705
H 5.8761929400698545 1.4084551062808346 -0.19653958668001723
H 4.990273908217335 0.02968384948483373 -0.8919299096828728
H 6.895526398591835 -0.5363027342915185 0.6563196398675859
H 5.860483274165477 0.0751467902737709 2.0501295043127867
H 5.3757786824928395 -1.3737351886085882 1.014761915047253
