22

C -4.919032815391132 -0.6733048738682578 -0.7537261116416465
C -4.716686257185525 0.7029473951151936 -0.28343316536838326
C -3.5671349075755634 1.2851625974512202 -0.4455224724836532
C -2.3103638492980383 1.6983875166873568 -0.2979918265229319
C -1.5428408732288335 1.2337630901471885 0.8495618181739154
C -0.3918037527805392 0.649057576860664 0.6886120458693544
C 0.6344410677041572 -0.06400541687332947 0.3414963938647535
C 1.751003625238613 -0.7000962024976617 0.2716244977987803
C 2.502529197587861 -0.7012154882895595 -0.9930531049232726
C 3.9287111638024 -0.404617484795012 -0.681172219406632
C 5.225801079383519 -0.8099497843375265 -0.5331666457851426
C 4.939521869307612 0.6052693785792376 -0.29944064324604214
H -5.9882411806008555 -0.9415729466937793 -0.8743255510628133
H -4.488089173592172 -1.3729343685172 0.015356171728320406
H -4.34466155047811 -0.8817639239579335 -1.688846749939197
H -5.508683644664953 1.2254888982139291 0.1948496948031556
H -1.9520059845202986 1.3862204464345105 1.836519329796498
H 2.1817110273214104 -1.2503474353194581 1.1140453537028443
H 2.4748971031207505 -1.7055418103186109 -1.4570077801545391
H 5.970580621101343 -1.604553214064994 -0.5610828618608634
H 4.973917481902766 0.9556035607078218 0.7505766434056251
H 5.146429752845875 1.368002489336257 -1.066514573760144
