22

C 3.807628335344217 0.7026112210316589 -0.25241733001764577
C 2.771824677205023 0.7228200386709208 0.7827913567879109
C 1.878194611669024 -0.22779459372939886 0.6926293556324894
C 0.94452191986347 -1.1397358970735125 0.47469473023291886
C -0.15240643049381838 -0.7372822050160898 -0.3938897974520994
C -1.277724104703616 -1.667258614703236 -0.4437456726580907
C -2.519368403816059 -1.2308811631982497 -0.5678026591120374
C -2.8258538606195094 0.22687933103558444 -0.6621648651995928
C -2.8249607125585086 0.8536677251964692 0.7070737852697239
H 4.199737320446416 -0.3477820505959849 -0.32055634416038226
H 4.637562683540101 1.403901036694236 -0.01261172007670824
H 3.315821235629231 0.9569874536318287 -1.227445519822588
H 2.631108705043483 1.3849186490233423 1.5905647209419507
H 1.1391445093785262 -2.0456699403172514 0.9740476632119891
H -0.5110855995389699 0.2699623069149492 -0.0316016826791666
H 0.280799535870722 -0.5169645369811079 -1.4048893523098722
H -1.1037531417339905 -2.7281100194799186 -0.37919122801266475
H -3.8114298710444987 0.3906095672359871 -1.1276754352045477
H -2.052597970597092 0.7530435766411052 -1.2775463059722365
H -2.222835508787521 1.7866376995921023 0.7213108101888608
H -3.8566307187685096 1.0862747476662706 1.0160458289856635
H -2.4476972113275606 0.10316566776048063 1.4577962334041707
