18

C 2.8659117701950847 0.3849149224372772 -0.2491774107820616
C 1.9033267121514865 -0.36222494016329365 0.5386744249963358
C 0.8215795334293765 -0.766973199909606 -0.10239498182363255
C -0.2516921551034356 -1.0249399591627217 -0.799845561639441
C -1.295088491617255 -0.015001207371759329 -0.801890223077446
C -2.621826198869219 -0.6342293181191154 -0.5157122109455458
C -0.9828848771600123 1.203411388531387 -0.0158584146968895
H 3.4687632704609643 -0.3307384222382846 -0.8481670532569651
H 3.6022183381581585 0.9637336436247944 0.3582848647936214
H 2.3558715495001734 1.0552755486868879 -0.9944274947010573
H 1.902753752254744 -0.6497529422309031 1.5515856133053534
H -0.2319571332060113 -1.9639179253155852 -1.2951074495064405
H -2.804102481610563 -1.4071565971802569 -1.311877880008735
H -2.6186257533824873 -1.1803862484509515 0.4514883292047374
H -3.468852368740138 0.07553348706662402 -0.5905068801697974
H -0.246995167281804 1.8120671191756392 -0.611471940563006
H -1.8706147935478383 1.8417581211681302 0.10283987608695765
H -0.5277855056312657 0.9986265294516979 0.9794974164807057
