27

C 5.83794322502715 0.015184956173949736 0.11066660135401384
C 4.332759160102837 -0.03155432952865123 0.0818760195502275
C 3.730574634196778 -1.1898341929325806 0.07875300522845284
C 2.3128543407188005 -1.3316521646144903 0.052353049139642054
C 1.5061863938488 -0.3125217264732171 0.02923958473517793
C 0.07397772920615892 -0.6102613842428987 0.0037089547861588017
C -0.8510233416304324 0.33277015252019815 -0.021147177057090166
C -2.244300265233746 -0.08422422383887655 -0.045044803863445636
C -3.2598469479794803 0.7612708006585074 -0.07093461715896257
C -3.170752436494892 2.2628866172382813 -0.08027635785443384
C -4.463310429324998 -0.029507281782034343 -0.0884028968122374
C -4.212740795146253 -1.3197571789194973 -0.07404350436902275
C -2.7507152737210827 -1.4821063267014212 -0.04454409425916358
H 6.133900900294432 0.4211436637387918 -0.8799501187399913
H 6.242641508705302 -1.0164558135304844 0.15893975764738907
H 6.134141900235147 0.6473284006643292 0.9490531391947246
H 3.8396248912403443 0.9294898091847061 0.06525419040500262
H 4.318292740197303 -2.1052326277151807 0.0968716075767496
H 1.8958638235902554 0.6851514789524493 0.029441000476171094
H -0.6224870911707046 1.373672276958246 -0.02438797221499307
H -3.22185713704817 2.5923070126804104 0.9764245884290403
H -4.086104211456368 2.690680821583711 -0.5709927287103154
H -2.2769456426175148 2.599598241646175 -0.6155639177583154
H -5.486679912806405 0.36365264434583167 -0.11111691067692366
H -4.915500406749632 -2.1637108033409302 -0.08142794224511475
H -2.4312068920523595 -2.0525717443338367 0.8368907479597824
H -2.365290463931341 -1.945747078391505 -0.9887115817318326
