33

C 6.199539229427278 1.4080967149589538 -0.24651358262012701
C 4.73709371360802 1.6074599024673226 -0.19313776710338892
C 4.0662310128300785 1.0427911210153706 0.7716141242441353
C 3.3740949834519083 0.2254118852027084 1.5510893185998837
C 3.1371160271446485 -1.1708528449200444 1.0393277754075605
C 2.112728479769007 -1.076785455810503 -0.0026455615837034873
C 0.9683247305453409 -0.5596842638903338 0.38701779071282433
C -0.16664569970145965 -0.13196508883660318 0.8576277609493882
C -1.0542407985380788 -1.1346775840490664 1.3934042297096059
C -2.201515673820854 -1.479163678897949 0.8219337804065234
C -2.6911760533658926 -0.8706781865911944 -0.42553086457135486
C -4.027788623625814 -0.18804002840965683 -0.2367899987917108
C -4.446082101989398 0.39831202270085364 -1.5468975017158368
C -3.966442984283153 0.9098063114248183 0.7867515194177013
H 6.661808830934868 1.7896676628789727 0.7013313245495216
H 6.438095136541931 0.32635267423851405 -0.2743008645877208
H 6.6381458188290345 1.9063007441908968 -1.1392411494851709
H 4.202132920968967 2.19066295877282 -0.9113909347853435
H 4.110835285362029 -1.528047728677133 0.6317019982269694
H 2.8549311518623735 -1.8472725236460181 1.8706435101206484
H 2.142454151906593 -1.357582488690539 -1.0154948578373038
H -0.2990180276314727 0.9194443130427205 0.7886778156645049
H -0.7442570387487499 -1.6170664095816185 2.3121985803795293
H -2.811760416924969 -2.237055174680092 1.2813078444570796
H -1.938633487803437 -0.1712231492202859 -0.8510675717318158
H -2.8373364148149336 -1.6569665994295248 -1.2040962705626055
H -4.759343497076938 -0.9677953629279626 0.039017910069471966
H -4.46426222277207 1.5202013213413301 -1.5018327286421227
H -5.464806392172891 0.0665647070888147 -1.8645171585284355
H -3.764867078358162 0.14053417566000917 -2.390948928255566
H -3.3099098201766077 0.6579758049820732 1.6430864769599014
H -3.7019901264791457 1.8575435568318204 0.31601906052117146
H -4.993455014897464 1.0277306914606388 1.2262997054582916
