20

C 3.2054921775748064 0.6552215061010301 0.08510785474636656
C 1.845399704036663 0.986675769311151 0.4620405458258899
C 0.9838159891323249 -0.006488869256674783 0.47620616281419587
C 0.19404494903798325 -1.043313088862334 0.34710838689352397
C -0.4018098363691922 -1.261122621975792 -0.9562617776028711
C -1.7423259458813711 -0.5415858676957601 -1.0077475186676357
C -1.6712965453819568 0.892028166284044 -0.8041286695375793
C -2.3501079905669915 0.8448825401058097 0.29132038289825035
C -2.51312963870738 -0.5853940111347884 0.23835323022291474
H 3.389713707836575 0.6195232930113908 -1.0087457383026084
H 3.4906173069977173 -0.3548383763047607 0.4770997115678184
H 3.902480296304295 1.37046531049672 0.5732846316693844
H 1.4075953717717538 1.906605941063336 0.7338908010327293
H 0.08245524610543398 -1.6113280476334966 1.2238296002727804
H 0.18631249867173177 -0.9087458768919909 -1.804687724793275
H -0.6008596109119315 -2.355765451287628 -1.1475783122571523
H -1.2231495508356267 1.7493068272917127 -1.343315752526266
H -2.6505070933998276 1.6923166859545014 0.9695011836777279
H -1.9709100442905905 -1.08015480269248 1.0871785286125928
H -3.5638309911240738 -0.9682890258841622 0.15613434476340576
