22

C -4.729867647338634 0.20201523055277862 0.7462572522673241
C -4.224539037471212 0.8337179923769032 -0.4663174498050126
C -3.1144812113749993 0.3291493188595423 -0.9571321568759112
C -1.9703914705497696 -0.17851887015066417 -1.3195633109199998
C -0.7759321444679177 0.4370221087166836 -0.7094404496792543
C 0.40547907174590564 -0.20870074381533907 -1.269580793109746
C 1.4264423237082462 -0.3563124608945994 -0.4600076714591843
C 2.413160023655701 -0.3707465959838072 0.39619905693084617
C 3.2716202339894496 0.8059274798623204 0.4029025461649982
C 4.608674861329648 0.41637108637754255 1.0419446004483388
H -4.923324313149958 -0.8756261054971705 0.5230035717502978
H -5.730135940183161 0.6542719237618956 0.9791996540000624
H -4.092559454158518 0.35033843490401556 1.6348732203878573
H -4.604016990872465 1.6435969837877842 -1.0280201857139006
H -2.0317898112581023 -0.9727933139889592 -2.0068971297337006
H 0.57914114291364 -0.5829837335980556 -2.237367431727152
H 2.4571196783561917 -1.247108857888274 0.9799215648511539
H 2.841397573302954 1.6903561024795153 0.9011020824000399
H 3.492605164400593 1.0647305109183185 -0.6735714081055139
H 5.288171365655057 1.279870130792238 1.031675320546386
H 5.0071355531148205 -0.42708911788896137 0.4326453696462288
H 4.40609102865228 0.028875795317638134 2.058173747735891
