20

C 3.278606830777702 0.8223041795072029 -0.3057386609035108
C 2.7215438663336466 -0.5074480430157152 -0.16412928037065608
C 1.6555413937476688 -0.6111606650352103 0.6106251225293065
C 0.5722353368433389 -0.5940205023884216 1.3341066957637775
C -0.6501068961599957 -0.3462706143146461 0.6144557145143443
C -0.9340236662951099 -1.0325125944557474 -0.5435377866883624
C -2.1151975971378407 -0.7617196319991537 -1.1972550370313029
C -3.0050840277018227 0.17846044587937424 -0.7090913446100644
C -2.715841716594404 0.8629885746619939 0.4511961457219962
C -1.5354481407616092 0.5932301506330221 1.1056228473949112
H 4.024132743251547 0.9951945480029422 0.5033500617892274
H 3.7520600919160936 0.9478224821545189 -1.309089228175349
H 2.4583993009442398 1.5972681741072587 -0.2736277057627241
H 3.0152157736873586 -1.4302619349215933 -0.5753864196762412
H 0.7152326672467559 -0.7616142247455098 2.360889734387584
H -0.2819186232842825 -1.7638026402033813 -0.9576360540096298
H -2.369221679533731 -1.2868245693340372 -2.1149696692647426
H -3.920817354665889 0.39111166141128073 -1.2122483752340603
H -3.396010138063651 1.600291549997699 0.8491773738937071
H -1.2692981645500239 1.1069636540581547 2.01862659367689
