22

C 3.9621129726106274 1.3681191001349913 0.09942197580966228
C 2.514182611865133 1.3859950956498746 0.45399853974307275
C 1.7100637049703415 0.4091547060912111 0.1437073161068217
C 1.049230171810354 -0.6956579649603389 0.0031866170820181025
C 0.32494598594859264 -1.5854518888209823 -0.6251918350755353
C -1.0961714770790272 -1.5504263464553276 -0.5407468470523018
C -2.0525517752740545 -2.6197394792701036 -0.3677748668777145
C -1.616076533565477 -0.3488868126365182 -0.6334177220793128
C -2.135545476270336 0.8557130374141304 -0.6094052190877494
C -2.255020971613746 1.4585192819617594 0.7015023784395269
H 4.145728426344891 0.6441992401043555 -0.7205423847843585
H 4.5822961221104475 1.0385996834549716 0.9609943110968533
H 4.247662837967807 2.4020478022073335 -0.15781370658834834
H 2.1449534595042494 2.2595891318061145 0.9911180472757888
H 0.7961649557073213 -2.359217881488514 -1.2169685781805637
H -2.7302701059469134 -2.6296839860510266 -1.2717689574138693
H -2.7109247662954963 -2.5275295027188895 0.5308050062077868
H -1.528401158259506 -3.5962099280896074 -0.3922475795134119
H -2.390482475971432 1.2045128472543023 -1.567941555023012
H -3.0968295618429464 0.9975320277878081 1.2810689305691483
H -2.5122831179668843 2.547259211739704 0.6519638627794605
H -1.3527838287540794 1.3415626248844401 1.3549718535793545
