14

C 2.541557291556645 0.0764211702141909 0.6739060496599056
C 1.654093209884101 -0.30099374937526235 -0.43808563428747715
C 0.38381532118427025 -0.32791701768816045 -0.1635725608500741
C -0.890328907943669 -0.0387252391012439 -0.050475931114595626
C -2.162560926541791 -0.5511532372843695 0.3974769635786902
C -2.0819008219928397 0.7796899186726599 -0.17327069838010611
H 2.663066153137996 1.1759613041155264 0.7614594959617993
H 3.534316587111829 -0.42396390948725643 0.4792563713954998
H 2.1423997729350295 -0.32941708180375817 1.6254440590616384
H 1.9696752202429693 -0.5498039468381289 -1.434918587727827
H -2.287048281336916 -0.7315786754059551 1.480387524706454
H -2.6401601790337175 -1.3604973952710988 -0.21566971422697268
H -2.561748969536309 0.9468945106758769 -1.155319006921047
H -2.265175469667202 1.6350833485771687 0.5382605446128698
