33

C 6.638904857177867 0.5265749622090513 0.5519594722088365
C 5.407477373084302 0.8136028876355494 -0.15618588636782005
C 4.5220137594304 -0.10656120550315848 -0.38321517752615386
C 3.7219474758733884 -1.1306975437932525 -0.4048812279612512
C 2.8254731867508025 -1.332619963431796 0.6427842901841724
C 2.0788839683756013 -0.3156057682515189 1.0060705613677636
C 1.3367453609289868 0.7414165247344785 1.2420142215702283
C 0.1301821294588419 0.8297032710882997 0.47176377920867674
C -1.0476191419239913 0.5994473467257375 1.0149182770233283
C -2.261581052754066 0.6995229444989202 0.19397871365963454
C -2.985436191785686 -0.6129096558421722 0.17395082079238217
C -4.224894884045529 -0.4610272675972087 -0.680998296090316
C -5.11671428869022 0.6167977101412693 -0.0895265198044725
C -3.899293337997813 -0.07880615135511987 -2.087083087138266
H 7.564449157897771 0.8241047058374155 0.019681608704939287
H 6.658975979744662 1.1271192005894668 1.5088100916961114
H 6.7037854573655355 -0.5290185329214084 0.8882475539087795
H 5.216770209516886 1.7795925418287197 -0.4938949598287175
H 3.7800467593057854 -1.781639869748654 -1.2200237396862752
H 2.621125373878577 -2.205287923554938 1.2348710046679954
H 1.7280220002095852 1.395043323549042 1.9728507545192389
H 0.22369524333160506 1.0951893325270559 -0.5830690252310233
H -1.116409461442139 0.34104428646586193 2.0490979308512305
H -2.0159314932488273 1.012868180932181 -0.8348962383978283
H -2.928725071312805 1.474057612821864 0.6431278588208228
H -3.237649617875975 -0.9418724270911979 1.1894928772267996
H -4.739491378579214 -1.442912358374054 -0.6698701815916125
H -4.84197877125681 0.8342843750068184 0.9666388897787157
H -6.138942510008513 0.22849323158275683 -0.08727102700316026
H -4.98496381417106 1.5575832970436632 -0.6524320647323715
H -4.839979528927985 -0.19289011097869146 -2.69030354751546
H -3.142987789073273 -0.7161991149200203 -2.570620540838347
H -3.635899959236073 0.9989907315525368 -2.165987186476519
