15

C 1.9699302451371528 -0.44656473070090513 -0.1700323621428529
C 0.540761752862978 -0.8571695086591857 -0.3371815355593827
C -0.4700626749361447 -0.032057158233870224 -0.1966501228903342
C -1.8501551561881744 -0.5257173500993032 -0.38061534660039487
C -0.2660129863878582 1.3917400539194404 0.14400147507827157
H 2.361843944539198 -0.7685048002853994 0.8149444024840423
H 2.5559468933196836 -0.96842725895214 -0.9389718154120248
H 2.0958997618182393 0.6395656807329452 -0.3403640456615804
H 0.3664344664674301 -1.8950138332453237 -0.586629420068451
H -2.2611561385800982 0.02772085054108442 -1.2663166706265245
H -1.8725389235995589 -1.6088588021226273 -0.649047155692463
H -2.497649862915923 -0.35329301380049544 0.501491733142653
H -1.2033237680125806 1.978639180510387 0.013366331053103203
H 0.4873676765875432 1.8851616658011725 -0.5084262341726006
H 0.04271476988810456 1.5327790245942137 1.199874630679641
