34

C -5.07395928921352 2.010527402984074 -0.08097242843667292
C -3.721787633254276 1.7772428327230776 -0.5770242309821861
C -3.457633703264177 0.5646060559851982 -1.0135848589422467
C -3.2812548303181104 -0.708888711037687 -1.3172521710979188
C -2.8565867301791057 -1.569864985511138 -0.22696252742632755
C -1.691511090193377 -0.8944645611906975 0.4839109027296165
C -1.1981649950108124 -1.7450633200403722 1.6381975920892966
C -0.5754100372767934 -0.6927807277660202 -0.4501717373189296
C 0.4603207717051539 -0.05666067874538654 0.029920206647232682
C 1.487809711540207 0.5107245969328644 0.6194601269280048
C 2.408496451168633 -0.3842346182744259 1.2588996029592994
C 3.484998627839009 -0.7452152598988961 0.5912058283550726
C 4.437758232058988 -0.9447483441305857 -0.3025960670108195
C 5.541461940544488 0.037854984263319374 -0.3228662095197624
C 5.14048666981167 1.3519315006925319 -0.9295596330321215
H -5.5135572400468345 1.1624320877449887 0.4605566870497066
H -5.717297303917948 2.3541940869259963 -0.9420182480321138
H -5.105353695938699 2.876937516493123 0.6437905200020639
H -2.8979179948221465 2.4312611617911237 -0.645951856114004
H -3.4814943366520845 -0.9140744227473003 -2.330728966482164
H -2.473212463803761 -2.5369951072036074 -0.6246585024616845
H -3.634056651745951 -1.8074480267866901 0.516141078879761
H -1.9964067820937357 0.10886438244380607 0.8579698850739639
H -0.3982420859872567 -2.433390117482475 1.301087876111442
H -0.762396456971818 -1.1326155923492618 2.4480555556063646
H -2.0516190144345012 -2.3400807717503063 2.067463500691078
H -0.4779860670733299 -0.9853209245962415 -1.4572007806163716
H 1.4955444154569026 1.560994539729089 0.5426954206030554
H 4.368462881851179 -1.7893629410380618 -0.9609849665175617
H 6.45066700921861 -0.3735597241149936 -0.8101712842214248
H 5.834189641649333 0.2032736076761248 0.7499152846985013
H 6.059151902381304 1.824935568738152 -1.3428401923825033
H 4.449201307781404 1.227826777086512 -1.782975778824416
H 4.747298839190609 2.0511617324539406 -0.1600298529906718
