21

C -3.2584529548471415 0.6619973720774537 0.3207323986349733
C -3.163327498571735 -0.5285678998934904 -0.5184795521355248
C -2.078628262373421 -1.2556435831852308 -0.3590532087658738
C -0.9095660722025177 -1.8594384789753577 -0.2078324792281507
C 0.14178613322889677 -1.3915567767444907 -1.0346374913122067
C 0.6143729956068649 -0.19304795478871167 -0.7641723036495005
C 1.0817215909091684 0.9642215204843574 -0.33879812884863103
C 2.128756813182946 0.9008572538456442 0.666356424396007
C 3.3949580353381594 0.3523376970790297 0.04630110480671731
H -3.652762773925449 0.4219200627885833 1.3286175682079826
H -2.279693213166608 1.1901736586071918 0.44854426904526795
H -3.9203392441253726 1.4201003987276821 -0.19260999388762468
H -3.82751780260865 -0.9107454396601339 -1.244450171710975
H -0.9442644791069482 -2.6140936773231642 0.5251061522170168
H 0.6334375460879376 -1.8435260255728232 -1.8550589891585048
H 0.6152495770397177 1.7898257845189045 -0.8005757601059271
H 1.8763252974426492 0.28259295994528755 1.5514245125026815
H 2.360323005430519 1.9534223410630147 1.0003253773109317
H 3.494095496293606 0.6220103545556128 -1.025536994927936
H 4.256965840976126 0.7949101625999815 0.5841190073193249
H 3.436559969391012 -0.7577497301495233 0.15572745884711678
