19

C 3.381202329316873 0.0449493271536237 0.1693433323532454
C 2.553663993228787 0.7696966724203755 -0.7874519771416558
C 1.6409762372359047 0.06121503693708743 -1.4215926289416014
C 0.7055977082489838 -0.7141287161224728 -1.9200976888924464
C -0.5150483339507896 -0.7809867557215037 -1.1641534090774384
C -0.9951165021569186 0.30264236170508596 -0.5786338618519163
C -2.2271825217211734 0.23726267567264897 0.18495008955182218
C -3.140725247956743 0.9525906138592748 0.9494540984373098
C -3.368832678764097 -0.48492834369782334 0.7207052200805044
H 4.136574496552744 -0.573681592671203 -0.35570475529986223
H 2.785999388343108 -0.673122595294403 0.788133220436167
H 3.962966583002512 0.7262981178442697 0.8408163645286338
H 2.5566463739461884 1.7868537015937358 -1.0670240098826562
H 0.9839103026851946 -1.1863203752497515 -2.8153904917112764
H -1.0615997396544754 -1.703712221355459 -1.057509506428018
H -0.48473015647857276 1.2502030640197532 -0.6559295949309079
H -3.44437331554615 1.88742746469479 1.3845613250458524
H -4.250360177861955 -0.7273683428927603 0.08370020110514413
H -3.219568738469181 -1.1748900928954304 1.5576089636577704
