21

C 3.5452294297268216 0.08107180275306941 -0.5473471631029024
C 2.488560666998683 0.669177531939775 0.25397029874384747
C 1.4303185776775023 0.009420649160091615 0.6284223879419375
C 0.5036445805244909 -0.8786962146296456 0.8454019760067244
C -0.5471797636897289 -0.9729806608537424 -0.10965544626711464
C -1.8175186140212702 -0.282791539369476 0.41043777393754116
C -1.5529254722067356 1.1791926924120177 0.6814686874365157
C -2.9636222046621152 -0.45774075614735754 -0.5295802742811933
H 4.033681690309669 0.90401452106427 -1.1471377392729294
H 3.192488162071179 -0.6461813015111897 -1.3093823317508275
H 4.33345034297235 -0.44122015612185955 0.029782475491667397
H 2.5285814388205283 1.6497790024528063 0.565565056787694
H 0.5540832890077767 -1.4940903801098933 1.701203913821456
H -0.8953881501217476 -2.025317290896182 -0.33961309274757745
H -0.3742968446290366 -0.5234506138650429 -1.1056579207542265
H -2.518472772233837 1.6195678808626843 1.0048401310810207
H -0.8283927660215525 1.3249347025539533 1.4928592641120344
H -1.2277698752485717 1.729374151613435 -0.22166812300023847
H -2.779537467488951 -1.1404440686223605 -1.3656998163011336
H -3.2653449470413185 0.519684826924904 -0.9793008315149836
H -3.8395893007440796 -0.8233047796102712 0.041090773632753215
