21

C 3.031849475637832 -0.1328164272722206 -0.17041574348781577
C 1.5989482969243787 0.012404342011878431 0.21930111073448344
C 0.6045797309763657 -0.12994275659253884 -0.625716968210906
C -0.790769595606705 0.02702146599675641 -0.17486578793978924
C -1.8009591489825483 -0.1876990526890509 -1.2521099342406024
C -1.0125373735955125 1.398955519003753 0.416687560254373
C -1.031475054672449 -1.0237788831433334 0.9035034928491835
H 3.0562180102287324 -0.12832580441773297 -1.2811132551178617
H 3.4508068468098974 -1.102011244103087 0.15442997953124724
H 3.645026804511426 0.7231956845392553 0.21531480458618138
H 1.3754984452683015 0.24668228168797482 1.2510529161783361
H 0.7367269765913335 -0.36573806801826614 -1.6820970546994924
H -1.6379305417248167 0.48498767583495683 -2.1269648203768163
H -1.8700930763339265 -1.2404115874985513 -1.6056029451798448
H -2.800312196532716 0.056316387059509414 -0.8332866453458244
H -0.22559474897749146 1.7204269513449177 1.0988420177446314
H -1.0673322750207623 2.1347989517701182 -0.4113479456816341
H -2.0350023709440106 1.4058234207472997 0.8868320523117307
H -1.8571354895960117 -0.7480601775635918 1.5742775018850497
H -0.12383724482507528 -1.1770276879538732 1.5176315507417864
H -1.2466754701362361 -1.974800990744133 0.3323409931168637
