34

C -6.6512634647749005 1.3902366218602165 1.536014795919068
C -5.482065672284583 2.0213267256924823 0.9418679523316178
C -4.365741293328193 1.3171847526906149 0.973720758122798
C -3.3411406295011243 0.4838300947566428 0.955311165077395
C -3.2528323943979114 -0.3964823027894796 -0.1989839514863191
C -2.232788300584283 -1.4877662556521325 0.04406568670016347
C -0.887974125203257 -1.0022356357768478 0.29573738492514123
C 0.03945560490730786 -1.3955383041759657 -0.5537287057331303
C 0.8642442455537999 -1.7490445178241265 -1.5272767794569095
C 0.9414393490473801 -0.8995997065586966 -2.6360895672509703
C 1.88788687400872 -0.04594100437095052 -2.8985690471094006
C 3.079253534801152 0.27367972911553146 -2.1762442995613056
C 3.431550707543285 -0.289151989145014 -1.0460513902798272
C 4.697090031418568 0.13340700190860996 -0.39453658615357723
C 5.045856717710235 -0.4342200781044072 0.7388716177531509
C 6.327298580115318 0.001659199406972132 1.387405170535486
H -7.097047578705391 0.5748397040854195 0.9484948098480552
H -6.409381305703668 1.0771773744774409 2.5868493310518454
H -7.458865292885832 2.1723897428522196 1.6389625999996893
H -5.360807040726437 2.9598665973046234 0.4784734444020564
H -2.721661103745969 0.5803383471054003 1.8028466026117544
H -3.049185396861305 0.10725446580987925 -1.1636909816390315
H -4.233734575163675 -0.9337526555114329 -0.35681322001342464
H -2.5404993748100497 -2.1758203193907084 0.8496093700623156
H -0.5092431447858355 -0.374588211259358 1.0541985707930002
H 1.3580832070643873 -2.6752660718970818 -1.2981589376892297
H 1.7621539749616963 0.5505615517781195 -3.8536362253776737
H 3.7548763112960772 1.038700961741075 -2.580609891177621
H 2.897139597411052 -1.040133946515701 -0.5228376453919991
H 5.314023280588188 0.8993307790221032 -0.8576561428342829
H 4.418202336246994 -1.1946031361527933 1.1837655071997746
H 7.133241562318911 -0.6547855825012279 1.0507967429323792
H 6.144079546171669 -0.026933648902340873 2.48289558320429
H 6.498355232297381 1.0425111810642258 1.114996277685068
