19

C -4.259997878200708 -0.2792768733983639 0.14924505613376826
C -3.0331127704502534 -1.0914593510139496 -0.06066170334816001
C -1.8762292122430204 -0.5294011134013644 0.15403903899891083
C -0.709658858801142 0.049366677451100925 0.1800720463650483
C 0.3339919621309564 0.8218820754837073 0.299268524890687
C 1.594825211479723 0.19411083266150403 0.7573337323129652
C 2.66937734795874 1.2004547268356218 0.7566951529571654
C 3.6255744379678823 0.787495132098497 -0.038735548412602475
C 3.2581437978369316 -0.5032031034261141 -0.6135289652141459
C 2.072748240177235 -0.8626019734832255 -0.15675334181211592
H -4.031527258015117 0.7320595402978418 -0.27097288222707533
H -4.389521574499794 -0.13330439234562313 1.248681687539087
H -5.153299024661337 -0.7137709205429444 -0.33069273052372816
H -3.103705175568627 -2.1076414737007507 -0.3788929872182608
H 0.2917080682500434 1.879189459621232 0.07541069331001313
H 2.6667166582669317 2.112727140923494 1.312408464362961
H 4.578546854155031 1.2978964330335312 -0.2714317102087767
H 3.8844861313088757 -1.0745201137090294 -1.3173000008645206
H 1.5809330429076063 -1.780002703385203 -0.43393768407178795
