17

C 2.011595923716755 0.5814196268154771 0.7599467223238695
C 1.1955352182158923 -0.6402318025889947 0.7776230156433214
C -0.018980743138160262 -0.7448910343177241 0.23020862728356256
C -1.0262737960450423 -1.75717372609413 0.08605984811400627
C -1.7858992982000412 -0.7495129895090379 -0.6155666874944643
C -0.8776713114056606 0.14532060992882245 -0.47960164149767937
C -0.7174471496271273 1.5966042372608549 -0.8886371124324286
H 1.8235379180476279 1.175349105374859 -0.1784241413165107
H 1.7172131708595324 1.1861945164621652 1.6547513854957443
H 3.0799924731287383 0.29279622977159253 0.8238464289292454
H 1.576835954988415 -1.5253692499191915 1.2569145116836988
H -1.449232470387079 -2.092072587625885 1.0652199395169442
H -0.6735494595583039 -2.6288728423778362 -0.5204164407212379
H -2.768743057049727 -0.7029982217200642 -1.1024594051487688
H -1.7129205756364545 1.9959235617828683 -1.1220820452302858
H -0.3461371696310225 2.188377891983342 -0.011290923825993652
H -0.027855628278459086 1.6791366747727428 -1.736092081323228
