37

C -4.040729178234114 3.3757388599357836 -0.7910845545184746
C -2.6882872994165683 3.0414498959762093 -1.2190497531043478
C -2.2894173472184973 1.81369654347902 -0.9565976147448495
C -1.94185751088102 0.6051654782218813 -0.5411119011371048
C -1.3673110724012738 0.5218981724027325 0.7898683267367811
C 0.14271148539284143 0.2807400344327109 0.724544567314578
C 1.2960001006407407 0.7875980567212166 0.30812767309079747
C 2.503215049491924 0.043543228798573974 0.5482853709835787
C 3.659417706305324 0.529093468889207 0.14278692209552452
C 4.889965807861922 -0.2506086181664058 0.3988670707065885
C 3.7605297236373496 1.8214793779212257 -0.5556369202114002
C -0.7684978617286821 -0.6996835159362327 1.361160600781807
C -1.0810987241913006 -1.9862626583413654 0.6930955608857984
C -0.15612924394715508 -2.7615791861676997 0.16748704088585475
C -0.7398461323899698 -3.9470213713625966 -0.4147966633367341
C -2.0343031970251357 -3.896724473101678 -0.24303180087963613
C -2.371544999105908 -2.657196268203699 0.47215003650397264
H -4.309204821347065 4.3836950265602495 -1.1768475527817113
H -4.750465355077011 2.5882191230259104 -1.1203470176078736
H -4.093221787736849 3.378280972980203 0.33324449498385655
H -1.9574778808118771 3.6224526306155984 -1.7104350111283344
H -2.1426792333624127 -0.1344615173969518 -1.2642262281603531
H -1.6908686027678907 1.2994666244073267 1.5452657407118628
H 1.3617701082919287 1.7382342591564794 -0.20450141282844786
H 2.4677153763337496 -0.9174340770326079 1.062531607931413
H 4.784073804107558 -1.3019426527860152 0.02578503025914914
H 5.777135680851235 0.18639088327088713 -0.08817756685800261
H 5.08875540860076 -0.3204501267119312 1.5065804929248126
H 4.810811091022143 2.160215301886826 -0.5991904721709644
H 3.3292328154068325 1.7939109686661592 -1.5742529542769705
H 3.2004119837531486 2.6005105841393608 0.028054887313152282
H -0.624224025125758 -0.7189813250608139 2.4822276908284926
H 0.9251903950548227 -2.5627079216695163 0.15623188042913932
H -0.2371703391638748 -4.781179571009011 -0.9263565057903993
H -2.782153417100924 -4.648879944511397 -0.5708432608788051
H -2.893379717060462 -2.9043824440726134 1.4246737456261405
H -3.0370687906570684 -2.0822838199565883 -0.2144815505787924
