22

C 3.705373637640298 0.7759629674955517 0.3227982321903691
C 2.4156969055019255 0.014940668446693341 0.36438706992680625
C 1.326124823174862 0.5103697050791112 -0.156620512760877
C 0.050501174931378096 -0.2005492991398254 -0.13561560256951294
C 0.08404776235817835 -1.5269890142842186 0.530670910766074
C -1.0334714593327081 0.326248206091785 -0.6730632448388401
C -2.3639965519235626 -0.27845351039704785 -0.719070024361315
C -3.4086078292899713 0.5612189059671318 -5.439689900350769e-06
H 4.1930838566932485 0.6808528293760222 1.2993177462926795
H 4.282954046052861 0.38434901968014157 -0.5266805880903764
H 3.4377805874337595 1.8539394463472016 0.13687955520425135
H 2.493204222577579 -0.9527094567378813 0.8548361965270285
H 1.3540392807531616 1.4750765661599747 -0.6209889966470791
H 0.7520100286843547 -2.2218101750585078 -0.055735353883940006
H 0.6309888724970115 -1.3789328330151263 1.501353823656977
H -0.893840885439757 -1.960597250502027 0.6851332272633629
H -0.9360728175396621 1.3189927167080107 -1.1348823469834426
H -2.680616413428476 -0.3422711904083478 -1.8109006932045524
H -2.436241573223319 -1.2858622482537105 -0.29669853905179033
H -3.310311230026578 0.33658185452123063 1.0929249369619878
H -4.403044079907335 0.27055657120710497 -0.4008325229959573
H -3.2596023581867057 1.6390855207168318 -0.13722271974826955
