33

C -3.2675176616869965 3.247644638539481 -1.0100388946671197
C -1.808975258059002 3.136337387020398 -0.7742459054490104
C -1.2678089518639086 1.9451606798673136 -0.6794549171589522
C -2.095911753994286 0.7181337115375164 -0.8051311782708245
C -1.5457200175979813 -0.4668316587737351 -0.7086113458665128
C -2.089673508698755 -1.8356113729285002 -0.7844599653679022
C -1.1661129183457872 -2.5571662588975053 0.16267774572408508
C -1.4638717318851246 -3.8390269502187544 0.8209961643177973
C -0.023564777618305513 -1.8425362394702591 0.31169551171051685
C -0.10490452838846434 -0.6504634314724785 -0.48969588205724246
C 0.699748745208977 0.4991043044500552 -0.35767786800106516
C 2.169343485322239 0.4343811752541279 -0.14959344629867918
C 2.8074961163800976 1.3530871356164418 0.9084495290313649
C 2.8009732927101982 -0.1484710979689099 1.0308973419947078
C 4.171220596151211 -0.7741755655487544 0.9378456379527531
C 0.15329568479026112 1.7347374841715093 -0.44912390952415543
H -3.576023938217086 4.320881895871204 -0.995898676920846
H -3.7851969458323307 2.679571246169979 -0.2021682438416938
H -3.4961995660298415 2.7825132347478783 -1.9922161791748332
H -1.1855546696778703 4.000878802941828 -0.6792495706022605
H -3.147385479369497 0.8913505143500865 -0.9759856825166693
H -1.9712238154502473 -2.3007850737094704 -1.783893487577654
H -0.5244983556573786 -4.398871311244106 1.0935896355844033
H -2.0242360675369566 -4.545864459593228 0.15937430546070705
H -2.1188534275463518 -3.7125954376183157 1.7277109142466536
H 0.7817322785851409 -2.1777406500036105 0.9432450163460742
H 2.7953431261796955 0.381021391704482 -1.083721225098989
H 3.712353589178087 1.9021667489096508 0.6550904504842393
H 2.173116911056855 -0.5578702941466211 1.8247200385151592
H 4.484811156844712 -1.231001598943046 1.8915356007962827
H 4.144010597968155 -1.5165472697874756 0.10528871916304974
H 4.946640098727701 -0.03426623794421911 0.6521897191767636
H 0.8231476943530569 2.562854557116529 -0.34277029798257774
