17

C -3.8012791102194474 -0.03891488740857508 -1.271537945972024
C -2.803863909842487 0.3357297771640557 -0.23164561304800532
C -1.547679609725034 0.0399037480824642 -0.41963571947368294
C -0.374816728983775 -0.4777832002164956 -0.25756579292927545
C 0.9177969804732576 -0.6373346033003324 -0.3813673752438664
C 1.679331925698439 -0.8444048635693517 0.8433014134535098
C 2.8299397037398246 -0.24151839172081604 1.0457341935932292
C 3.358336579014165 0.6654044613844988 0.004901425574411286
H -4.383539188360406 -0.9030653336874341 -0.8724010196351896
H -3.283958379907287 -0.3434007840261954 -2.2043554877515983
H -4.541605255026455 0.7638544569131249 -1.458644181588313
H -3.1529943180644984 0.8489667436744469 0.661480707578513
H 1.2632974310396277 -1.5060842541621444 1.5684892894807836
H 3.3622833326299815 -0.4186197330548686 1.9599127377556105
H 3.9569094322913014 1.4986214578672992 0.44000753124706804
H 2.4880200917717468 1.1194091299081106 -0.5119877309056645
H 4.0338210235393985 0.13923627612217643 -0.7093474397337926
