17

C 2.910977747288574 0.5351979990484742 0.353841583121271
C 2.076202470739476 -0.24043592074724243 -0.5479941246490229
C 0.7828552052897686 -0.24929797468700599 -0.2869551228231334
C -0.45771474592451644 -0.16753567641782205 0.0693433852549569
C -1.3672703095456664 0.8471494364520475 -0.40676286985715904
C -2.639754999602423 0.508672413701203 0.3289970279472255
C -2.465000919066411 -0.5533461747370437 1.0919797103279942
C -1.080841692273001 -1.0838295617786524 0.9921121408316259
H 2.4668264617501747 1.5592768109367252 0.49798554409719814
H 3.9384224152519547 0.7044286487339926 -0.024714213093266924
H 3.024099118024616 0.09579092288660013 1.3660142258998489
H 2.3129328460782674 -0.816002010286804 -1.398124107570589
H -1.1078421126644424 1.893936080728363 -0.08016459226874426
H -3.532926350167434 1.0797277763221804 0.21518376269067008
H -3.2361584000295065 -0.9834910620253206 1.7133189082778366
H -1.0554745901827243 -2.1492406558788253 0.6884326567544751
H -0.5693321449664878 -0.9810010522506791 1.993832197141548
