21

C 3.9526944375034048 -0.365287501437369 0.32724691161664904
C 2.6325768180004645 0.2494928910992452 0.14482433031326128
C 1.5948989473492567 -0.3657883724363031 -0.40441204125169267
C 0.294226037651689 0.2949600758950758 -0.5638112881552766
C -0.7581728700085038 -0.46185189445873615 0.1809562483989875
C -2.032648428249594 -0.11694584089588349 0.16949034984228534
C -2.9891119521323826 -0.9430632323650883 0.9464950573172853
C -2.5616309647131694 1.0495556665079524 -0.576248215458006
H 4.765933336707368 0.14578378410486031 -0.24250134272747204
H 3.9792800507224997 -1.4394173917591344 0.08501327772310063
H 4.237329188850154 -0.22624715084992725 1.4076017731820867
H 2.492746340776225 1.2701002919543274 0.4784797715936621
H 1.7641000769164896 -1.392801970966178 -0.7313384074043112
H -0.01852458998157095 0.4053095447540905 -1.619769049837241
H 0.3437295698670884 1.3044093962257326 -0.08851060889764882
H -2.46486335833751 -1.244652293577684 1.8895483602041812
H -3.9357123795708993 -0.42951352187909647 1.1669790456749924
H -3.156819106447644 -1.8808157051074186 0.345262489549165
H -2.999787254319041 0.7719867756812562 -1.5616868865280455
H -1.7896460373576233 1.8185232868019838 -0.7802973383998327
H -3.350597863226595 1.556263162708264 0.03765659185905357
