17

C 2.673689794094671 -0.303657534757934 0.4743282171253245
C 1.8146726070912045 0.6911590136703872 -0.22173370190458172
C 0.5157234694478614 0.5656078690203014 -0.28379509806670716
C -0.2045291418890985 -0.5790758426433618 0.3351170263535183
C -1.520149692375812 -0.8121771248532472 -0.3648141949705088
C -2.4443737479804186 0.3627236596135793 -0.3090162587914156
H 2.1279823435032235 -0.8542501799558393 1.2701542874965484
H 3.1036289777312533 -1.0443869409403177 -0.22280478463071107
H 3.5195839879771826 0.209305432836013 0.9686351231444627
H 2.2956897283009536 1.5430857739584578 -0.6882279920664366
H -0.09740568454690704 1.2998754975748463 -0.795297669681464
H -0.389772566857464 -0.4495156555303272 1.4026469966326658
H -2.022140337828443 -1.7292496938720021 -0.01111783762930066
H -1.2792336838794798 -0.9908574714203565 -1.4450333691275734
H -2.372190025739412 1.0247368228784668 -1.2080605370395916
H -2.209371972356198 1.0143568992214964 0.5796077028194262
H -3.511804054693059 0.052319475199806224 -0.2560112797562261
