34

C -4.806226501980362 -2.839936854591213 -0.15435626168149807
C -3.8694847759985733 -2.2768831267090857 0.8229616589339889
C -3.5165728569248618 -1.0275691516508942 0.6257083095233809
C -3.14268999729854 0.1826063391897961 0.287466810386214
C -2.0037011509462026 0.2783260451496595 -0.6065971042107737
C -1.2977160099669862 1.596869865026222 -0.6156019368981247
C -2.1315880627271055 2.758958525806357 -1.0149119945859393
C -0.6715202812356035 1.7985505539810673 0.7132186256314568
C 0.6101335979706706 1.8157533446424612 0.9279009667900961
C 1.898096587782987 1.796901353253155 1.045622596537738
C 3.189111584904245 1.8378898949931293 0.8940730384034796
C 4.012043065499235 0.6699966136194103 0.627014765495821
C 3.525359868631172 -0.25597448224672814 -0.1846228671060279
C 4.3406349945003315 -1.4763489585242608 -0.4871845019074627
C 5.7319666754471585 -1.2953375802728277 0.07269766740159259
H -5.648644433395331 -2.1913613482990764 -0.41682950397021973
H -5.142614439259864 -3.8617081133732722 0.18983696772720732
H -4.215773090336761 -3.054932691889775 -1.0929976873437128
H -3.426140982540907 -2.7190547267972858 1.66913564993137
H -3.7458490920703067 0.9371391745883344 0.7285223955134116
H -1.2579789560997297 -0.497522015121888 -0.3310056377342354
H -2.297549502284273 0.02469501266809207 -1.66751006024148
H -0.4545955540404689 1.5071652829822821 -1.3515223137563646
H -2.0471354339234042 3.546289271808402 -0.20941292292262317
H -1.7481656749217882 3.28283873775339 -1.9386114191761439
H -3.183657946837946 2.5534809559211107 -1.1946890424471692
H -1.3218127460892988 1.9407024411894078 1.5597972808279492
H 3.6805992501710976 2.797502877144256 0.9711337728641928
H 2.543633547533653 -0.17080304084921638 -0.6505621836817577
H 4.433798045618308 -1.5408326732820523 -1.6047887645306664
H 3.855529432593047 -2.390726017678431 -0.12208715623562073
H 6.438446140325828 -2.0034508182421695 -0.4059016628696154
H 6.0193283608517785 -0.2353110095071052 -0.06901418072501006
H 5.65073633704889 -1.4879136806811741 1.1788388775888499
