26

C -4.84204139240063 -0.42870984336811413 -0.7652214529756383
C -3.9274412482686247 0.44293411012016537 -0.048665303019936594
C -2.757922941955757 0.6524017561733129 -0.6125442392320518
C -1.5842306895595353 0.7046775756138716 -1.2049133761565283
C -0.6474782877959476 -0.29983700061191315 -0.8421545373920932
C -0.18701586121973315 -0.3517969020415746 0.39325683586342314
C 0.7940985408681284 -1.3786766661375482 0.8334967596827723
C 2.2207378230992525 -0.9241566770201096 0.6755355096074306
C 2.592942987775012 -0.5967258383493005 -0.7065678567262565
C 3.37473709338868 0.4848044624664792 -0.7201210630164393
C 3.5930010005744952 0.9771386105600017 0.6732638401822002
C 2.5771299245038697 0.243994877622 1.5242203967070829
H -4.362043557594763 -1.3281215899614964 -1.2119277751560809
H -5.659302187200827 -0.818384401549029 -0.10961525336314218
H -5.346751932658038 0.16494423454445356 -1.5632848328239979
H -4.039403981588724 0.9501441124269738 0.8702147622712101
H -1.5063890208644881 1.5083211237744054 -1.8850124612574355
H -0.5370180474774183 0.37948484723921266 1.1093720170436232
H 0.627514444072575 -1.5589146752878875 1.916612508283815
H 0.6234554023966659 -2.3403369720811416 0.31719738706738876
H 2.2597771794970067 -1.1763948844066923 -1.5722762501202794
H 3.8072621948264125 0.9655627716263079 -1.5908624741900534
H 4.6453152944939236 0.730862613122986 0.9903461585947102
H 3.5008000689262793 2.0701745620853673 0.7378310266428655
H 3.0542273678276928 -0.010478336068292134 2.4867729649367982
H 1.7260398263339065 0.9370881295076051 1.708543874922808
