28

C 6.633993839418984 0.013048716082326052 0.5612225802664678
C 5.296796464140179 -0.1520898869631592 1.1168197741783006
C 4.365762833774075 -0.5735737261830988 0.28337909948427703
C 3.506840576528927 -0.8975399225114267 -0.6437315097886257
C 2.894094289002702 0.17007123520581435 -1.3503340656915406
C 1.6601746398216244 0.47491624203270766 -0.9829899454607429
C 0.41761880343607244 0.6500857591061058 -0.6203622588602488
C -0.5510653756065337 -0.13602954378301235 -1.3191853522821964
C -1.8210574306813159 0.14263378509580785 -1.1655646682718506
C -2.9847885980359723 0.6773796563768347 -0.8529464534227562
C -3.632575531999358 0.2519037240522355 0.3785990237530144
C -4.750577934070669 -0.7269011335118525 -0.006590191443951723
C -5.753445230074382 -0.0497231324210414 -0.9139427811883063
H 7.0869763697045975 -0.9918453202811416 0.41198460129134246
H 6.5540240241115315 0.5002228739741412 -0.44644168066561096
H 7.308130442650884 0.6628305391397269 1.151281652382542
H 4.93349448161151 0.011982213561352078 2.0941074862308153
H 3.38018371088591 -1.957194738376804 -0.7475034926224454
H 3.25655890870298 0.777551256024956 -2.1363634950066803
H 0.2995761353595802 1.3588833135839735 0.15223636727355017
H -3.424518015218136 1.405852467732931 -1.4976964226602794
H -4.160125459396327 1.0909392295152924 0.8970891290707483
H -2.9706012258361816 -0.20090459216073378 1.1241752870093025
H -4.348099452558998 -1.5997569726060688 -0.5581006141388325
H -5.2114388092832336 -1.0935452949705036 0.9187638971976565
H -5.310917247713935 0.007794325595378834 -1.9229860559242353
H -6.036564831889257 0.9279983640787668 -0.4901710139837733
H -6.638450376784425 -0.7449894373892049 -0.960757106429464
