22

C 3.673718958053984 0.6169757971146935 -0.1978752781974327
C 3.614201613181214 -0.8508753796940762 -0.01092103294958708
C 2.500567641775008 -1.4892410821084137 -0.3393478513909075
C 1.32690643553388 -2.09730610635948 -0.26641186235077235
C 0.454302727252246 -1.8538294152746264 0.8337201125173878
C -0.536916242062258 -1.0052809170011163 0.6214877439543611
C -1.4719109371483488 -0.19244858764596345 0.28150802925580304
C -1.362555180964433 1.2371913434388389 0.41949795289068914
C -2.6686315037977826 1.718669091894518 -0.12721315681914633
C -3.4279915768998777 0.720185516283409 -0.5121074825057327
C -2.745134916592951 -0.6068625315679039 -0.2826542108587862
H 2.7532795131739083 1.1318610306538959 0.17727093277275635
H 3.803359285748125 0.905412878315714 -1.2703019448123567
H 4.5078590508487 1.0261582826773947 0.4332728105421936
H 4.416023629477305 -1.4492347286202365 0.37993327920098674
H 0.44642287378081535 -2.232401647785619 1.816895036662033
H -1.3482056181463495 1.5018924499707433 1.512012856498641
H -0.49634744699330796 1.7153964182662238 -0.06513787698321825
H -2.9726097390912902 2.76232328210979 -0.20560826723343742
H -4.420568506583637 0.7846145526800797 -0.9433953756506684
H -3.362013416131824 -1.24481357617906 0.3822088406698764
H -2.683756644413019 -1.098386671168767 -1.2717826372672727
