33

C 6.120911828688942 0.867032641462488 0.3493462678813784
C 4.84180834794568 0.8045922867104255 1.0982286861487554
C 3.7416601632379187 0.4040422620415746 0.4856605038597313
C 2.5046080717422625 0.35532949620627235 1.2522123416327147
C 1.406309017729575 -0.042106201761913604 0.6498027287218392
C 1.4461014277252608 -0.42457615272146937 -0.7657701220661992
C 0.12216406206448883 -0.8427855972563244 -1.2828987536409209
C -0.999503020962981 -0.40171174520241826 -0.7057414857539999
C -2.2995496232927732 -0.8495179942652743 -1.2614232870051767
C -2.9538425076300974 -1.8630698112616773 -0.43219619896010114
C -4.0023305916636485 -1.55803907461207 0.28750218752532114
C -4.54493271716094 -0.21461987950572164 0.28556415437890803
C -5.467986904345956 0.6739395564135345 0.7236738523735022
C -4.463882629432938 1.1986420818850876 -0.22412696335763996
C -0.9233953776217811 0.5278910306622407 0.48302218625474724
C 0.1368165242780401 -0.10163872283173175 1.3991256863011088
H 6.045538851454086 0.1757578837090993 -0.5095535645658278
H 6.28776122927726 1.8936815295557352 -0.012954672702597536
H 6.9870989100814915 0.5750615840342981 1.0020261218274118
H 4.84329876720114 1.0921680750653837 2.139016748330414
H 3.7713418555913614 0.11963383763168038 -0.5679752746507828
H 2.520474760724354 0.6479489793231488 2.3000620697952803
H 2.243811390789432 -1.1594601079834972 -0.9962984176676902
H 0.02293311133813391 -1.5207618661088702 -2.1465843285070045
H -2.8957649540988744 -0.0313195256300834 -1.6231239318028188
H -2.5917467559719665 -2.9025023561862313 -0.38692798610166934
H -4.472763171421718 -2.310131418237688 0.8911401274778216
H -6.332033584656324 0.7900610853127077 1.3598936852863084
H -3.692489578425631 1.8651885988428438 0.15908620956009686
H -4.849859027878939 1.2931847714008455 -1.260507344061759
H -1.86556095617061 0.5728957356725677 1.0246027619335594
H -0.512868592302052 1.5147013872564348 0.18274079379921648
H -0.17412832683368665 -1.1495123696218765 1.5866334460247222
