33

C 5.851093484581261 -0.42918047847205887 1.0871618674657797
C 4.993119592977076 -1.4394252280320392 0.48963549968904163
C 4.304477183358271 -1.0670696159976032 -0.5735472693551346
C 3.595191313678871 -0.5584934067352516 -1.5604752879961934
C 2.351681068565225 0.04182270346910105 -1.1859149071426802
C 2.167478497378994 0.8723768484072131 -0.19876933108087905
C 0.8291645379574868 1.4337060523713898 0.09788257510518797
C -0.039911795448373144 1.5180212642835909 -1.0742704329306192
C -1.3143519117581948 1.087630316252135 -1.0955389156974322
C -1.9120859172005644 0.49554759012773436 0.09016027920398104
C -3.156316530643349 0.052175332527445516 0.14038090337080633
C -4.054916784349452 0.10927917091907756 -0.9795492770792198
C -5.302785782658498 -0.33660625079448714 -0.9253375711797749
C -5.838399830568805 -0.9255082079225763 0.31614729992811735
C -1.0490676977143643 0.40294520480823565 1.2813244662924599
C 0.19259649273633672 0.8298284891374575 1.2788784586349817
H 6.744617425507929 -0.9503900787549899 1.5217669024497877
H 6.238382720416071 0.28767708636106676 0.34520538270618495
H 5.366175972424264 0.16198241403260052 1.9014690472109417
H 4.818270016516316 -2.440471346915842 0.762127943926813
H 4.0540459419280035 -0.667344593279796 -2.5020516893385505
H 1.478025844947798 -0.23397102700022696 -1.7990678387832422
H 2.99705963748476 1.1681344370746667 0.42600820345809903
H 0.33740039061728927 1.9416719152993305 -1.975637450908861
H -1.8790980307793337 1.1868334677447314 -1.9933300332506434
H -3.5423698131711348 -0.38562494755783205 1.075911473306652
H -3.7303289602209464 0.5282780205188129 -1.9222807450668211
H -5.919953299396869 -0.2626192158992383 -1.8010573217343995
H -5.5733819865417775 -0.20829676837367422 1.1432063192563364
H -5.354549347527269 -1.8841504033063645 0.5837766450637303
H -6.93835922513841 -1.0209855258129625 0.27044310601753485
H -1.4818806653133616 -0.04088393463263353 2.1861589773219787
H 0.7689774573564125 0.7331107161545801 2.181295051471633
