20

C 3.498688919882654 0.6788473338348888 0.4731521964760434
C 2.8262317210275616 -0.5614419490462751 0.07765866463919317
C 1.6026576198236182 -0.51748222534404 -0.34679255227315403
C 0.28610815273302403 -0.49939118916572517 -0.5229860190339081
C -0.5390487214992428 -0.48708359878306023 0.7157854672707984
C -1.9941208215654735 -0.17178020439220815 0.36332027155892355
C -2.0801026060143584 1.118373042239465 -0.27163466381413165
C -2.4620171125285717 0.6398447570840013 -1.389043902737557
C -2.4351276999897613 -0.7311992800114999 -0.9251293507676142
H 4.591636526329992 0.48818950443135234 0.6126210424559027
H 3.111703903121566 1.0395184766550565 1.4466291935202926
H 3.346170237948252 1.4202353636382417 -0.3427842377768521
H 3.325754822077038 -1.4944618994886936 0.13793533462148394
H -0.13860806785143048 0.2188597349158936 1.470595865220727
H -0.5137262769852776 -1.4969154576872947 1.170242031966031
H -2.678908534739351 -0.34504655039910015 1.2379086337374006
H -1.893176024228237 2.166465371849855 0.052058343059230634
H -2.7055872576211186 1.1806710726698344 -2.3336619317412075
H -1.7099247274370724 -1.4173280067720138 -1.44384982076888
H -3.4386040524838295 -1.2288742962286867 -0.8539751169884362
