19

C 4.91487056473143 0.11133206944134755 0.4238101778376045
C 4.414854664329197 0.12104684986886301 -0.9819359250329958
C 3.12014413905318 0.2577844351274414 -1.2123061961702557
C 1.8537662362188267 0.4259687186786828 -1.336152583684528
C 0.56328419634717 0.6057542049728062 -1.2956698755589433
C -0.6029805085888784 0.7986584125408775 -0.7730554613424105
C -1.7949111885596727 0.9472527181271444 -0.2978535563865539
C -2.7881622329822937 1.2458092122846987 0.5235555738862276
C -3.602979221141506 0.17104160839810895 1.1626319663892624
C -4.55937894816938 -0.38879706160584887 0.11481304512244167
H 4.943910887897114 1.1506917012024356 0.7698564648529097
H 4.128257458670317 -0.4007550517460527 1.0308515463082086
H 5.83448841559804 -0.45830773644749706 0.5519743126603602
H 5.079907832796449 0.019522871770894606 -1.8195108856598001
H -2.9959398439798623 -0.5947192640526635 1.6382044113366963
H -4.215267131430839 0.6796813061956959 1.9489034698858172
H -3.9646068786263102 -0.38834508781958826 -0.8449656183880964
H -4.8739657030018 -1.413468423126086 0.39343166486253917
H -5.4552927391615285 0.23360172217703334 0.003417469081669591
