22

C 4.266748467504123 0.9370825390355333 -0.2335042888916908
C 3.332864118832903 -0.2393295666127982 -0.123467767645066
C 2.0342051695806895 -0.04058814073227257 0.10347835641336821
C 1.1663345035587374 -1.1632015515745349 0.2045679807827214
C 0.095138786388333 -1.1332992930128336 -0.5680808814369244
C -0.9753605949724556 -0.975376931985688 -1.2922467686778025
C -2.07447707269137 -0.2854052884277768 -0.6483535974215175
C -3.182224863875163 -0.8963115851971211 -0.2694106747871844
C -4.1062756766696475 0.04228190921272192 0.3460267371543389
C -3.559700907602191 1.2450340981701582 0.34535046140670894
C -2.2284870505739596 1.1323417028476677 -0.28507030350688745
H 3.787807703030769 1.7031042491052095 -0.8740330261702969
H 5.183049214908441 0.6149898756656618 -0.7493384439336813
H 4.500747418102738 1.350687461981044 0.7659184864459041
H 3.741108137279894 -1.2350111650605513 -0.23242288781600004
H 1.665323351767143 0.9565552135926919 0.20583043535589432
H 1.2230027513405943 -2.0312115529812806 0.796222732998022
H -0.9108879217967188 -1.3695829129736306 -2.2639340566462596
H -3.408590412605402 -1.955565348462484 -0.3851329482604314
H -5.100758846651911 -0.1869231181125367 0.7522222805673453
H -3.971279483134576 2.1768632398137373 0.7256576129507429
H -1.478286791720949 1.352866165709094 0.5115539850085763
