28

C 5.215349667548875 -0.49336912003570693 0.26709056194859504
C 4.8005319850886 0.19133686826830706 -0.9716341379587039
C 3.5523231400274002 0.5921178106299196 -1.0893191155434316
C 2.598809362926083 0.3658581112731815 -0.021129478412874197
C 1.3376363409704912 0.7822063611355001 -0.16495529722584557
C 0.36614364031239927 0.5475437504784569 0.9323835590357102
C -0.49381568358884104 -0.6874331916862505 0.6502258454003716
C -1.2133275951537452 -0.4246797248734431 -0.6213121020040749
C -2.320177745078288 0.2994979271771404 -0.5345182746579559
C -3.3447817934412223 1.012658174417243 -0.18702848201564667
C -4.5576790972594585 0.3552996488924842 0.3119849120625187
C -4.987553737043226 -0.6540915622752594 -0.7630799343301605
H 5.1562172948494025 0.23351424279694274 1.1158514073219705
H 6.301189388182298 -0.7871814449300479 0.2004381116920494
H 4.612187305454825 -1.3929101719819963 0.4177943651047267
H 5.509829302212617 0.3588677466999339 -1.7645292928186096
H 3.250534816057405 1.1026113403861166 -2.0174086589556595
H 2.913882324352797 -0.1355009506522002 0.8791605044593336
H -0.26157748197034236 1.4507801690414432 1.0444136878746644
H 0.9402074503617159 0.38992285995806497 1.8882611570270977
H 0.13249711143324533 -1.6015263789669747 0.6125059404957783
H -1.1718974552295065 -0.8071284496535479 1.5105686887444372
H -3.2926499590219787 2.07092446316097 -0.2642932945640505
H -4.376320550248443 -0.1943780432849033 1.2590479828617147
H -5.403162650141165 1.0774230955533468 0.4051970504925463
H -5.806970982106751 -1.3045443861999875 -0.39412681118147647
H -4.081481102240306 -1.2617142026197223 -1.0561039180273404
H -5.375943297255702 -0.11324876944314563 -1.6454849768256479
