33

C -7.048769906263887 0.16787053320272374 -0.17863050568796213
C -5.818120972116388 0.9397715226248761 -0.12685338238110833
C -4.718145971691661 0.3042545182127179 -0.49738504151588936
C -3.6812435625915843 -0.4466305218911967 -0.7958795196769543
C -3.091327524528388 -1.1522323209173824 0.2996676004372987
C -1.829046494664977 -1.0051113129273102 0.6301680603954694
C -0.9680429346555381 -0.10430669802085385 -0.11719848280091477
C 0.2931547781137084 0.03249390508712941 0.22545607361125444
C 1.1591420235781722 0.9304264546450931 -0.5164097801747103
C 2.426544394987242 1.141039322104438 -0.2602323801773159
C 3.1512690449673912 0.4777803273126673 0.8396986523056418
C 4.31701752954608 -0.3482001552475345 0.3332843415427463
C 3.791336580614526 -1.408679306254324 -0.6047815715445576
C 5.319256473519394 0.49173865525392635 -0.408903994658863
H -7.97175529307924 0.7722632893262763 -0.2543716550502407
H -7.032116916103135 -0.5362528785880202 -1.0444415313715671
H -7.187241482312241 -0.49586324898073986 0.7211130134249233
H -5.634038998918975 1.9368080222809765 0.15933374222974664
H -3.4249684618956455 -0.42516354575077403 -1.8187578954569479
H -3.6991788965049186 -1.8321327746935572 0.8807051641810079
H -1.3552769261886402 0.45352100247659005 -0.9513983269880357
H 0.651622494566372 -0.5396689881578235 1.0641260018115717
H 0.7181165731114861 1.4813056379223908 -1.3645590626106752
H 2.95964200258103 1.8500193310164912 -0.9069514144589265
H 2.516865139874571 -0.13663386256350468 1.4853223660348862
H 3.627383432760696 1.2725588618615546 1.491145138148291
H 4.811323907144534 -0.8553109133617833 1.186178723506193
H 4.56911055563424 -2.1304401252364653 -0.8962586791064571
H 2.9510018231602904 -1.9826153369286825 -0.18915634884894011
H 3.4692232735564703 -0.876529254042902 -1.540962155442915
H 4.9944009691073 0.6291720040309202 -1.4588920392145055
H 5.448876787310131 1.4781711352565428 0.08941075257330859
H 6.283986557381916 -0.08342327905228664 -0.4018611668831114
