28

C -4.816804155184383 -0.22655513856289283 -0.10050768833591982
C -3.377441389973302 -0.5420392033771746 -0.020902179062795206
C -2.436291388292121 0.3734283174798962 -0.16570885811856942
C -1.0231526000718836 0.0489713938039381 -0.0849743561371525
C -0.08516629991338194 0.9372151186819582 -0.2250546074355567
C 1.3510718700860336 0.7191769779518948 -0.16260429736248652
C 1.966967207130986 0.36023086876951627 1.1578201356111713
C 3.326483403515486 1.0070654924969953 1.2918927413780814
C 2.1181718518104926 -1.0582795138400323 0.6541232702586107
C 1.935260655303092 -0.5175744851203219 -0.744220285524505
C 1.0759704560693442 -1.329358538195594 -1.6579177108612493
H -5.395467400208105 -0.7536725932862883 0.7074422951334228
H -5.01140694591532 0.8568193524603032 -0.009019919781641308
H -5.2111844957930105 -0.5863447658429177 -1.0594492455331352
H -3.058160446093563 -1.5587380860657911 0.1628880096764223
H -2.7649859683377125 1.4038272771209679 -0.35206736751558
H -0.7515542878773505 -0.977923310995646 0.09979944983276144
H -0.4112676621716455 1.9761718170155205 -0.4128579787596016
H 1.308544442522941 0.47046012285177086 2.041174327165253
H 4.104793782027286 0.2377970908858884 1.5477550929035249
H 3.669916635626095 1.4671514678666076 0.3396923889924146
H 3.347043656531899 1.775087416210182 2.094366610564136
H 1.3242046927682796 -1.7214195197443232 1.031506469422122
H 3.128797567816791 -1.471727457331895 0.8603091156857352
H 2.9606253581784245 -0.2845226117466225 -1.1576970853662114
H 0.27247992580163194 -0.7026967682535801 -2.051867420128774
H 1.7077746564077687 -1.6116081738115058 -2.5510524479178356
H 0.7447768782344962 -2.2963354285363233 -1.2328684587825256
