19

C 2.6112023356648755 -0.4675672175865501 -0.05512327304690081
C 1.2138715078741962 -0.8377615066263794 0.2734663587667301
C 0.2741199481640356 0.06564462000948086 0.1846037227448357
C 0.44700696516060984 1.4658326381627769 -0.22023336824242545
C -0.6849827582117288 1.9354781880915402 -0.7040857897611549
C -1.7017308987548312 0.8683992258051593 -0.6557191153314121
C -1.1930945074128259 -0.024276673064308 0.4496575953396232
C -1.7097880426050873 -1.424647991120271 0.2721225608483749
H 2.7939816453440733 0.6246275065367716 -0.0131848087695137
H 2.8910973137844875 -0.7991711471851309 -1.0859389731111249
H 3.2951395650215813 -1.0288875960258 0.6241414738685358
H 1.0458990760191322 -1.8624987839347698 0.576491531665639
H 1.3624220264263693 2.0699115606489586 -0.14929389364094214
H -0.8887314050810088 2.946476142966421 -1.0916867400759735
H -2.7220669030148983 1.2522961600409612 -0.465070858424136
H -1.4740506692588597 0.4364137998064309 1.4106088328309205
H -1.2633760354809198 -2.100924887052245 1.0040157206447566
H -2.802207911486755 -1.3954657671101827 0.4217698297981193
H -1.4947112521523505 -1.7238782723629174 -0.7765408061039764
