34

C -3.05110401037681 -3.0472125805871944 -0.538665765794215
C -3.0630091973942943 -1.7812271028002373 -1.2495393576881588
C -2.1278734982447416 -0.9267396181733668 -0.8870469191074196
C -1.1390303333463234 -0.17005007468303854 -0.4904990203582249
C -1.4702502842220588 0.6853096704895233 0.596937729387547
C -2.1923347871764878 1.773967349755393 0.3779731209241717
C -2.579671166326769 2.718336877427405 1.4631446604101266
C 0.1067601260101438 -0.3241308054263095 -1.2054818494702675
C 1.2687857888782212 -0.7602280474825255 -0.3444045882533646
C 2.495584382783174 -0.8779561188177565 -1.2260943679327025
C 1.5785722422718305 0.22532634317197828 0.7566076712622709
C 2.717692542497087 -0.2995057771127812 1.524529689604998
C 3.7277405434555986 0.536409063770696 1.4360457894862797
C 3.3392081101599986 1.6680087532609826 0.6108899047522961
C 2.092886066424898 1.4980683471267753 0.21069266483684354
H -3.5008738393808465 -2.868775178659213 0.48154416764668506
H -2.060641382065743 -3.5008625251086403 -0.39940229294243434
H -3.697590220224756 -3.8245839879890218 -0.9974350810386593
H -3.6830411675892845 -1.4102638292584997 -2.008545916201081
H -1.1532572427759473 0.4824708568203672 1.6109070337546336
H -2.5412895262172484 2.032985390292486 -0.6191501485277728
H -2.0215528691317575 3.6724942149546043 1.257245047398385
H -2.276805144677962 2.3854920656159555 2.4572109049984157
H -3.668454237748641 2.888338054237725 1.3531877181749619
H 0.398827067822891 0.6912871688336019 -1.6090292017378345
H 0.07855119047177873 -0.9840555680232348 -2.078309423446798
H 1.0816868186550592 -1.7658623160333191 0.07856384957133739
H 3.273323856004505 -1.5200058320649086 -0.8150626735493146
H 2.868378140227521 0.15430779754133142 -1.482539967998128
H 2.1286144068245227 -1.2817874744507067 -2.213657400134458
H 2.7824676278993956 -1.2255046008551451 2.0980611990245492
H 4.721249164311784 0.41246888544156385 1.9084227312396034
H 3.9768149459537674 2.5135388756195347 0.3671029216876573
H 1.5896358862473827 2.2299417231659473 -0.42420282997991693
