15

C -2.4534790366922734 -0.6162615446032765 -0.36777405784040235
C -1.1214497125982728 -0.6397640277340666 0.2594637067985334
C -0.4123862104962438 0.4705360967048226 0.3360327929217431
C 0.93228565819805 0.5249480987472117 0.9513165533683167
C 2.0759265542734955 1.0882486252432257 0.07941809117575546
C 2.0370687730823445 -0.3609571754531367 0.3344284190499626
H -2.6596282413453487 -1.5095782826575583 -0.9976964008939876
H -3.2678012851343623 -0.4695154994465687 0.3895318710826002
H -2.5665701495681885 0.2613526773012681 -1.0663150282596818
H -0.727465822315419 -1.5703218329392048 0.6566612836200483
H -0.8302745779493994 1.3806715718084133 -0.06763734427826953
H 2.74327141863596 1.7443102628458536 0.6630485504374896
H 1.776828184416543 1.4742580319793261 -0.9149876351546878
H 2.801494015978789 -0.7451977786488831 1.054040388803699
H 1.6721804315142441 -1.0327292231472551 -0.461050103958023
