34

C -5.683666376405041 0.14711563860884624 -0.3166292130467626
C -4.32377741396248 0.6530872365259012 -0.3811649681753564
C -3.398970658584919 -0.10236665876720026 0.19078080815176146
C -2.5531140610064096 -0.9654001323274986 0.7069485226432565
C -2.043148366947844 -1.9743700023169786 -0.21328148409697814
C -0.8534780188282668 -1.3968174111671974 -0.9880536859274862
C -1.2286332131787323 -0.2200810897359238 -1.762878300614794
C -0.3734162402833128 0.7735731932014719 -1.7471586748475632
C 0.48442812048885153 1.766600378761873 -1.5713601922581533
C 0.266731215148471 2.6214557786980945 -0.5062117472823002
C 0.842585491073642 2.689580544993353 0.6419295770611284
C 1.910549010325913 1.8149734061426703 1.0672866810111123
C 2.479419191639965 0.8415098678146369 0.4297806377967838
C 3.5668881899583043 0.10342557254973891 1.1224943866399317
C 4.161772046980496 -0.891250402660638 0.49513832929467655
C 5.252751011385617 -1.6667651926962017 1.1302857048080703
H -5.994803583916052 0.15386560731803195 0.769206291722115
H -6.430463078020848 0.7634117060173836 -0.8506705038213391
H -5.811702472552764 -0.8951651682298095 -0.6869610595151786
H -3.9229811073056085 1.528234648168018 -0.8081966028979044
H -2.3571832228795575 -0.8083702108432771 1.731784903366629
H -1.8014461404620334 -2.9269404873138636 0.2514957519393068
H -0.5711494638222374 -2.2069570377683725 -1.7141680405247663
H -0.0642380239546736 -1.2358458610324994 -0.2562109788088596
H -2.0889751024526966 -0.039012477306883765 -2.338997178300004
H 1.2481897068440968 1.7482121096541066 -2.330718353583246
H 0.5077325560785113 3.475751660114575 1.379976966143678
H 2.2967710625145257 2.007449848297684 2.0872888055899153
H 2.2264457328434246 0.5195173481937561 -0.5719509535810235
H 3.8523987161344477 0.38056403520891785 2.10633280034433
H 3.861176992795563 -1.1655867012343502 -0.511211619475165
H 5.257014399746042 -2.6800250400940997 0.7119224798101773
H 5.0469228126720855 -1.663250631193774 2.226542870522435
H 6.239370287986037 -1.150124075576217 0.9520450980589913
