16

C 2.316675327782114 0.5684059369236859 -0.15748822418174024
C 1.3103421435506482 -0.4892688870987571 -0.43213710512953585
C 0.028168829524404457 -0.37143513476423146 -0.11241427572945785
C -1.2207087183379264 -1.1580091640021881 -0.21289259472480163
C -2.0234012013775766 0.08009152039001807 0.10096054097519674
C -0.7508329103306326 0.713133932366497 0.5447438511765711
H 2.4841088549115815 1.2438341213509765 -0.9993328644564428
H 1.8863799568245274 1.1937694359871893 0.6703108648684932
H 3.275389308983974 0.1503025138119641 0.19985776504512723
H 1.683661097933048 -1.3963365750562169 -0.9239867192821425
H -1.295684380320417 -1.8763271778888273 0.6154823375233647
H -1.4621978516918843 -1.561424629795067 -1.209768435616061
H -2.4874217758510118 0.5866851367610144 -0.7620436379526628
H -2.714395262123844 -0.04338476018658503 0.9767522917062351
H -0.5368702201966096 0.6783998163788203 1.6447543907901494
H -0.4932131992804114 1.681563914821719 0.05720181498769911
