19

C -3.2689236287142385 1.0764001759414312 -0.2789968963798616
C -2.2127355463935365 0.39700124576832757 0.5209825913226512
C -1.050603579205358 0.11395520399806679 -0.05071630121910351
C -0.017401428783251776 -0.5655059523692487 0.7782546430681149
C 0.2919913981646476 -1.9561757351150895 0.392721249629569
C 1.3117835845233976 -0.8456987302339248 0.23013362318024247
C 2.547308462711472 -0.5556514673954968 -0.17222474368829702
C 3.0125814200214616 0.8419503658718213 -0.07298882528731764
H -4.291377567048045 0.810587489828009 0.08590405363709308
H -3.1592429056196063 0.6961026529181693 -1.3247912066518004
H -3.078844311364547 2.166683308862654 -0.25594042240114623
H -2.4252868998445356 0.15164902372418035 1.5542737332853447
H -0.8749383797195215 0.3743971340814538 -1.084977830757198
H -0.035418183731425704 -2.3261470193175184 -0.6144094949247787
H 0.512855455702132 -2.717461580302473 1.183838964399774
H 3.230560077433189 -1.2889031484231064 -0.5686649195961461
H 3.302769895883558 1.167700902274799 -1.105619047073961
H 3.9440550114847164 0.9151389527795414 0.5560738673467874
H 2.260867124499545 1.5439771771084276 0.28725321169212364
