19

C 3.4134808116382476 -0.11143748979005018 0.27684967971893776
C 2.3495940909010655 -0.8792747433898033 -0.34971359614903724
C 1.3034696525368439 -0.19530475230885752 -0.7651391418211557
C 0.2793086360797187 0.5786929976616814 -1.0716691133540401
C -0.696263649509356 0.7576976797805984 -0.021706883500346368
C -1.9528761070143548 1.4610143294348719 -0.10293115013820553
C -1.9878903871836047 -0.07334515923616615 -0.2171456525447549
C -2.3394626645000214 -0.859076651851803 1.0184007175355183
H 4.220104143465073 0.09170754894810806 -0.4764648911841651
H 3.074481705880593 0.8350414337508885 0.6831831207232743
H 3.892399280609348 -0.6750221030970092 1.1195735766828834
H 2.2641209298562823 -1.9104885758324266 -0.5336973288164206
H 0.32755178405102053 0.9588532701291563 -2.0550716569232885
H -2.3506017437322333 1.9591842178433254 -0.9987566842541638
H -2.413221906735516 1.8286101022245012 0.8372049478101605
H -2.1575703391022163 -0.5111538881451271 -1.2178004495288612
H -2.6477270537927415 -0.18293148486110308 1.8216039107319684
H -1.4495009670658117 -1.487495819954489 1.3116746014374805
H -3.129396216382996 -1.5852709113063443 0.7416059935741838
