28

C 6.077939037129307 -1.185956724852548 0.2308176731907528
C 5.856989874568341 0.009369926825161553 -0.5670907483164414
C 4.627299754263582 0.4858532899134445 -0.5797079781410431
C 3.352206201831962 0.8134168315655507 -0.5993058941625596
C 2.564764375201236 0.190536277808681 -1.6148160811299195
C 1.3283307875345762 -0.20895401840901526 -1.3847986277822957
C 0.04246387822279622 -0.31940629113867175 -1.2159706867706659
C -1.2565878623290077 -0.23009497496404324 -1.2117495261204727
C -1.96138249231648 0.34142235768354273 -0.045923790677200815
C -2.354765197767436 -0.7210002766894225 0.9319193450810661
C -3.5548772997835427 -0.7239480380103868 1.4839950102468722
C -4.521804314191646 0.33687505485858 1.1306141773368614
C -5.779555532134846 -0.27810695829141047 0.5122727010270975
H 6.90040558525214 -1.7859430256022437 -0.2555078094841378
H 5.214841164048544 -1.8499522026464175 0.29124385425151056
H 6.4553408898971645 -0.8906151097039948 1.2336544530439622
H 6.525819851379141 0.5734737095532199 -1.1520841089024452
H 3.0883678234888845 1.502912537617304 0.15476842552943487
H 2.9665997951181695 0.030046176270827406 -2.6051712532773452
H -1.798141609754149 -0.583068428128335 -2.0779966331394406
H -1.3325102569905685 1.1259917213930957 0.4559233029886064
H -1.6575940333924726 -1.4948271587315587 1.193419823491042
H -3.8094797864294123 -1.4986246065244895 2.1822272775162608
H -4.789315967072804 0.9807192989655519 1.996206557631925
H -4.103270933019045 1.0076609459860066 0.354163005510337
H -5.4220884397337485 -0.9819737781614063 -0.2738320972692986
H -6.356749272262376 0.5614640066113125 0.1026192870311739
H -6.303246020758165 -0.7954553921740858 1.3301103412966733
