22

C 4.227753915196777 -0.3532503457226696 0.027864818602561715
C 3.5669013888964445 0.6418109884705008 0.8539706167126181
C 2.6205003073849285 1.347037093234347 0.2541850086172887
C 1.6536402239427235 1.9384679944957786 -0.40155457782550086
C 0.37903347545514987 1.2881027216510204 -0.3398585015564054
C 0.2397314038418312 0.058992338391717955 -0.7906558233286416
C -1.0552614963751117 -0.579866466411095 -0.7193085977334932
C -2.0707326789391387 0.0731493790186731 -0.20746243703316092
C -3.412029638936763 -0.5764202517959987 -0.12875877996830049
C -4.251793810463157 0.059331426675108934 0.9409592231026291
H 3.5933601708568914 -1.2409493201859803 -0.19483946985120398
H 5.177402184543705 -0.7543164493720935 0.4643049124668928
H 4.4439501045462 0.10512033751855875 -0.9807338445587476
H 3.700304568831366 0.9139468273444705 1.8627176795513483
H 1.9416818748622127 2.8257421111416168 -0.89675903920937
H 1.0635286367895114 -0.49349753160104304 -1.2149092322057797
H -1.1834629136881951 -1.6073524815696492 -1.0931836819716927
H -3.2719554586136983 -1.6724863739352196 0.0693434288758821
H -3.926002552893218 -0.5002589348326553 -1.0924642502129391
H -4.639018696762825 -0.7304745796480211 1.6189489682322906
H -5.162781306142777 0.5421741115986484 0.49136110408882916
H -3.634749702332734 0.8093177484979158 1.4768324752049713
