19

C 4.025377600239045 -0.5890398209751521 -0.08078936491551407
C 2.867825950710028 -0.7439397482415373 0.8359941617272585
C 1.705704732547905 -0.18541213903461778 0.6203937648423876
C 0.7047728129591486 0.6111523973072442 0.40545832991869557
C -0.3221761071783916 1.4044024552521341 0.3819546408600008
C -1.5739982332673652 0.7727786986977278 -0.19743052884152587
C -2.3685668545752496 1.1275831624486132 -1.065850287164333
C -3.164883645849983 -0.031135241760684246 -0.987198403162144
C -3.505393804568738 -1.0923307286519612 -0.11651007523091025
C -2.39111771399264 -0.28990695374204567 0.2669318652535647
H 4.585060107211763 0.31116812487097456 0.2780947792648887
H 3.662423140898522 -0.3212457737573551 -1.112981013776561
H 4.611819131580896 -1.5047908791465237 -0.06961244052981344
H 3.0179370070927143 -1.3524918567111404 1.7172451600751455
H -0.3472011606782721 2.423844517942787 0.7259275945983537
H -2.474277050194442 2.057918774077143 -1.730059898744986
H -2.841728281144834 -0.6106517412539937 -1.9968836976314388
H -3.3913347033916708 -2.1597078819441076 -0.25123437567168294
H -2.800242928398473 0.17180463462247514 1.3071159816685782
