19

C -5.030346661305204 0.5524147234343425 -0.20032243812031958
C -4.282099618085457 -0.7087540698995289 0.042328374531994985
C -2.9722955811772667 -0.7055890291198355 0.07288120734519718
C -1.703795669283145 -0.6235077223777101 0.2967193204690728
C -0.47294154856364806 -0.4020711281276007 0.5852183149253072
C 0.7615738569106182 0.013570461808013065 0.6396306860409533
C 1.8445474771167116 -0.8996163846757473 0.40765397152095356
C 2.8150082590484002 -0.4461674058731522 -0.3552434543329627
C 3.780185071264281 0.11422446567346317 -1.0284719661483586
C 4.789378719886216 0.8388949379360756 -0.24216558605945224
H -4.3783589533304745 1.1743820803462426 -0.8646065679306373
H -6.010341468645342 0.3730765004753927 -0.6653775468085242
H -5.110623182300365 1.0933016205912482 0.7722894857834072
H -4.790653609865475 -1.6502091645353218 0.19811555143638732
H 1.9959385130762632 -1.882994839052271 0.750448353411633
H 3.715150737986147 -0.023222795975925723 -2.0736096042396133
H 5.753474292267053 0.9661822999842691 -0.7741332880955635
H 4.921639700384426 0.3564290099651763 0.7467897548556597
H 4.374559664617262 1.8596564394229231 -0.04161315212188745
