28

C 5.452243731497576 0.9928308579824197 -0.24248082642280966
C 5.677520717724463 -0.21432501399515616 0.5390260557296329
C 4.911525324218918 -1.2500104515372108 0.25208921410501495
C 4.049256513895155 -2.1781734025072983 -0.05575227746308271
C 2.8042288307099184 -2.1392257584952277 0.6777265270929109
C 1.7601442620808372 -1.5499972296916154 0.13995032410681654
C 0.7606607225124898 -0.8129588446314473 -0.2242069953375089
C -0.1901167792810949 -0.0568900703430888 -0.6704627834034086
C -1.5470445994133226 -0.2108777772853736 -0.1788788964785577
C -2.327281953797837 0.8082145335551791 0.0814090880794905
C -3.693524680857571 0.6320203459531769 0.5767958384399825
C -4.722390754427464 1.040673799640557 -0.4579507752514593
C -6.121335283383383 0.856664723666219 0.05868290751008459
H 4.419608461914188 1.084722225074026 -0.602871721308741
H 5.62736404490637 1.9022007618531283 0.4043933237903054
H 6.114591061115579 1.030753133037351 -1.1555010066276905
H 6.362689747812586 -0.4074905255074842 1.3138074109686835
H 4.36613707911687 -2.8440098267283918 -0.8048703526849333
H 2.6889937957748793 -2.585689043861208 1.6778757555320432
H 0.027564228515461024 0.6961194373048637 -1.4158707977465572
H -1.921763079742139 -1.2173762444518272 -0.023660687388671275
H -1.951946913733071 1.794464265564762 -0.07362505762366182
H -3.9239541722823765 -0.40650025544732826 0.8972882604871283
H -4.60039964359244 2.13064136339094 -0.6987990588756333
H -4.598542621656011 0.485364192158405 -1.4051185205397327
H -6.412819739404549 -0.22277008297261733 0.0790439600698101
H -6.831977995266068 1.3528134583260856 -0.6203039379185554
H -6.179430304957155 1.2888114299480673 1.0886451378623443
