25

C -5.593251569175611 0.9537520513857142 -0.028464031973774465
C -4.4809453957298215 0.48071405531348316 0.7849982503859501
C -3.779346605294358 -0.5330107531443942 0.3157557274274263
C -3.1063989998905255 -1.4514880614411543 -0.31448640834864416
C -2.0566925385507324 -1.0028631726450659 -1.193905286901236
C -0.8810670572071186 -0.6104583207402943 -0.8198736667562828
C 0.261409754975223 -0.5555972866119842 -0.2391324860712047
C 1.510403891757068 -0.3650872336636296 0.11517044613162297
C 2.5990936992417377 -1.184090355701548 -0.3962128620175841
C 3.832009962572091 -0.7715336819001289 -0.3738598972804506
C 4.151587838078456 0.5548052655362888 0.1792613670179536
C 5.636178528209898 0.8107200522078369 0.040013521642738206
H -5.388643828300689 0.9476598519525028 -1.1163256401472113
H -6.543673788450362 0.4003092169531879 0.15770456026277263
H -5.755341006670227 2.0417829275293173 0.22834730275396084
H -4.121288045661721 0.8202732299905248 1.7213541024255712
H -3.42640056209214 -2.4428890674257717 -0.09582287344960098
H -2.2691141174796745 -0.9929206590256664 -2.2598843899038323
H 1.7216781796158576 0.44916508833297075 0.8262587342236735
H 2.369268554577534 -2.154182581802502 -0.8012827022796397
H 3.8181858511830202 0.6236392173352866 1.2475720352184638
H 3.5489146172458472 1.3337128549982884 -0.3606038505039514
H 6.127597731257332 -0.03181683501738027 -0.45750232003176383
H 6.057222343375796 0.9750791753576499 1.0534009813870555
H 5.768612562413332 1.704325022226408 -0.5945465607353971
