27

C 4.349948907460308 0.15625915031331009 0.03780824135810499
C 3.2855535951681523 0.40940589576086933 -0.9402369329472404
C 2.2444692765568366 -0.3789730941631904 -1.010567984930151
C 1.0961989998807742 -0.9582149659705791 -1.1047705167868456
C -0.01696797215155263 -1.631072624873618 -1.1910420632799599
C -1.069902153735687 -1.5490643198666116 -0.12000888151527786
C -0.3892014495875581 -1.460289166507293 1.160030995452825
C -0.1869812900990677 -0.5259170300640456 2.0674783381738986
C -0.680050313153483 0.8487396784650046 1.9757204542383229
C -1.539387662739418 1.3802062038441298 1.119881019168586
C -2.242907175165156 0.7358390223685026 0.01627960412946317
C -3.3344091652596237 1.5122273782137876 -0.6509996692782697
C -1.993518143344074 -0.47351866944778653 -0.4383950286856553
H 4.117055816072759 0.5745467216119939 1.0463083704922496
H 5.290448047407369 0.6471904876562784 -0.28873133373396653
H 4.591071953481415 -0.9210270113031485 0.15189106442010936
H 3.3768586305339685 1.2597327248095616 -1.602384249579809
H -0.20533952069714792 -2.2659223358782223 -2.041468081031673
H -1.6588437655462798 -2.5131502033500026 -0.12455873698771651
H 0.08103564926739017 -2.4116282475077995 1.4563779602102105
H 0.3853758601157193 -0.8065291734980619 2.9375287117380022
H -0.27280044253924224 1.531599054397362 2.730214769461634
H -1.7680207328301667 2.439700415738334 1.2348731976885012
H -4.3020060244728295 1.048223640251028 -0.3708860655287569
H -3.1999952747673968 1.5377474205137642 -1.7478231364405292
H -3.294365816853437 2.5404660176734515 -0.23662817143764772
H -2.6633198330025953 -0.7265769691870324 -1.2770584398715288
