20

C -2.361302403178598 1.0015584099604677 -1.4200175600462515
C -2.522727840892113 -0.37872853881558816 -0.8952832184398123
C -1.5497793363670749 -0.9841185662449368 -0.22803586664034908
C -0.9050722030280517 -2.088103304475699 0.5157208610913832
C -0.14437291458992302 -0.8614722848852366 0.30787532992381583
C 0.9592080243375406 -0.1521227542804364 0.4656414454005401
C 1.2342028747646727 1.2017201978037437 -0.00012436210037897983
C 2.4540996756700073 1.5093155026490714 0.37870578375190456
C 3.0549982931262236 0.4035092548121218 1.1048148183659092
C 2.1799907484840255 -0.5841313950144149 1.1622001802097035
H -2.4648347974496443 1.727555887415464 -0.5994892375873327
H -3.1304329606294004 1.1453671633147253 -2.205625111948918
H -1.3573212591302006 1.1601878689336689 -1.8790230850458616
H -3.440350710542815 -0.9313755136029297 -1.0424120120826705
H -1.3192608094142897 -2.300993203739296 1.5430437271059065
H -0.5477001260543471 -2.9806628908803012 0.003649634774076683
H 0.5348508055246368 1.816129184122041 -0.5566090534911373
H 2.9498079416687393 2.4679975207237685 0.1749142671333929
H 4.055332988441949 0.38748214191333635 1.5305807261596323
H 2.3206640092779516 -1.5591146797100683 1.6394727334342794
