28

C 6.784958561971016 0.13732818218070023 -0.3665374062088659
C 5.668003282773114 0.782284449344221 0.30655658408651515
C 4.675842816073116 -0.007279931721342222 0.6670693370100842
C 3.700293029240833 -0.8543148356203226 0.8896205460368548
C 2.7531631217428543 -1.0164808861266859 -0.1671282757301918
C 1.473660933912206 -0.8827470701525029 0.08085649954835394
C 0.23407596409813947 -0.5474761717963776 0.29622768675442046
C -0.9568169215392469 -0.21642267303976645 0.6806267653625344
C -1.643620034185726 0.8751564694165215 0.019212663218726948
C -2.970946987169406 0.8784583464281432 -0.01593691091567708
C -3.747134587120033 -0.22000139647119982 0.6129458977432205
C -5.213224241459279 0.1746778334339884 0.630094681567121
C -5.760355528881223 0.4147024176866242 -0.7430877339974401
H 6.932912746086619 -0.8828697326901705 0.007409843628482919
H 7.73701281184071 0.7100153218382451 -0.2663892632505248
H 6.5701932423873775 0.06691787450194552 -1.4576721561094237
H 5.505666698500908 1.7932355630988113 0.5627696386684053
H 3.754863336061733 -1.308529235913298 1.8406338195162344
H 3.012719204287112 -1.2510885961149083 -1.2027784179758065
H -1.445765008296064 -0.7337582656027848 1.4789790572331725
H -1.0946955693876994 1.6920977029351614 -0.44920336284464996
H -3.6281992882118104 -1.177058237978372 0.05651502624024508
H -3.445996557297828 -0.3741187214415391 1.6686093168243201
H -5.80870412029055 -0.5972347564108745 1.1705890521198727
H -5.294449283807844 1.1404272495543908 1.2012417486492017
H -6.700776106162303 -0.17841520879887673 -0.89610242331929
H -6.023826454664382 1.4734542201024703 -0.9145569450510915
H -5.0688550605020755 0.10904008935780579 -1.540990021236234
