16

C 3.0462213144539114 0.06783084877949244 0.4382413520438523
C 1.948477449366732 0.20573379768022193 -0.5171337943089497
C 0.7384349185815243 0.16191156262486495 -0.04143959411223571
C -0.4413549858607038 -0.234799324189495 0.3199438762265603
C -1.5149186225750957 -1.2756093247398679 0.5128345160901945
C -1.710636921651794 0.12314224113163227 0.8668423764460917
C -2.619168916761086 0.9269512150297137 -0.059157133122146335
H 2.7947560010867813 -0.49316687580213675 1.3547435967295343
H 3.407414432145581 1.056654196282624 0.7418091159444978
H 3.8895454192436336 -0.486437891568713 -0.06919838695053458
H 2.1257826182609003 0.3368168616295126 -1.5596869579222907
H -1.1860044373576815 -2.0487523100778966 1.2580026565295388
H -1.9521793092411515 -1.689328714229664 -0.4155391975920675
H -2.3647852201980957 0.6969930316485653 -1.1224306844840544
H -2.47731394127066 2.017589359363744 0.06444744215057821
H -3.684269798222883 0.6344713264374335 0.0793831316214571
