17

C 3.06432612107433 -0.5645600934861361 -0.5379272363701393
C 2.5472280722377136 0.2535855448669007 0.5473542286627906
C 1.2604938227556641 0.13041478375590465 0.8120456261790622
C -0.03529131679849064 0.01406383808561912 0.9157651345024447
C -0.8232554400338931 0.8827295584836435 0.11067421959944625
C -1.915008810368614 0.4307436358752179 -0.47191567930201805
C -3.116548576872851 0.7139018191326265 -1.3643470238621036
C -2.9070368328268317 -0.6370578843581493 -0.7897519375162171
H 2.376032429624225 -0.6066988211588337 -1.4103469374583797
H 3.9926393738055386 -0.06292603730363912 -0.9302646650672779
H 3.36306104052038 -1.5874364916122532 -0.2500530068441265
H 3.032343058418967 0.9484926978331467 1.177247642339215
H -0.32954342114686397 -0.7356707292970687 1.6058312269984387
H -0.5242342459230332 1.9127556664897487 -0.021445523269856572
H -3.9260788728437617 1.3201953868747351 -0.8611868230678152
H -3.477357757892276 -0.9681811957483483 0.09963280008286514
H -2.581768643730742 -1.4443516784332089 -1.4738488264428455
