33

C 7.096035470532932 -1.2136930587554626 0.13368482583801478
C 6.429386347605837 -0.5965801624528526 -1.0094365097854876
C 5.398730876335885 0.171533382514886 -0.7217269769205658
C 4.333976273038995 0.8283130330533982 -0.35439456701006145
C 3.0898376332510247 0.04463017464023827 -0.2684463337668617
C 2.071794673306205 0.5581078712515274 -1.174094025267877
C 0.8354899762537513 0.16215081248048877 -0.9400884152623381
C -0.3665147880003011 -0.18844107368848662 -0.5469684105374572
C -1.0213685981396718 0.682602097613316 0.41801460527570566
C -2.5322788261356397 0.6399297142642125 0.3304380270165649
C -2.9557190104913893 -0.7819469480062562 0.5946172140909747
C -4.458146143625716 -0.9598230867807671 0.5352121976563236
C -5.087517979549662 -0.07518059996142179 1.575521513729114
C -5.005763172533535 -0.7571139077408386 -0.8370267568638525
H 8.012538842479046 -1.7806765854947189 -0.14235209698825133
H 6.396692645830464 -1.9683190270485995 0.5684003776093082
H 7.305963501631117 -0.44517572821370904 0.913242877761094
H 6.6324634332581685 -0.6614283398164489 -2.0409443002028094
H 4.496348291663523 1.848500516543869 -0.16084976017243427
H 2.76884185063391 0.07988484240315392 0.8148667537271242
H 2.1490845165647032 1.2061342587771997 -2.0019218151842004
H -0.7072072225014217 -1.080274952790471 -0.9937541648702668
H -0.6212115300455124 1.6939109695935448 0.4109822302376949
H -2.906613210681718 1.2963556821242965 1.1688561951003953
H -2.8766894634944093 1.0211656010737662 -0.6352007638837335
H -2.562143624489578 -1.0802518862472308 1.5844763099692092
H -4.650840879549718 -2.017364035996493 0.8615668372936951
H -4.974820368520432 0.9885209390358742 1.2854366185912385
H -4.585784212715555 -0.26235041620809924 2.5359995494201972
H -6.171185130380565 -0.3058974886084256 1.6117974254195275
H -4.804655771904099 -1.6341589167426778 -1.4767821589782852
H -6.108871749213234 -0.631117674314657 -0.745753959125306
H -4.619852650415568 0.17478329005241855 -1.2933725439158372
