20

C 3.3837070177787174 -0.07617868124647215 -0.2597700977663854
C 2.097220071067978 0.6345959910202879 -0.3923680683472766
C 0.9405758780738935 0.0022808306665436113 -0.4539974098262418
C -0.3664256218116942 0.722717482034398 -0.5886293439921946
C -1.327721383698156 0.061643800004066183 0.36536958821698684
C -1.4933623323426952 -1.3810885836899296 0.02343534608458833
C -2.646879086626368 0.7780246510771343 0.4521235485089118
H 4.001987426825134 -0.0506718281856486 -1.1823638397875391
H 3.9296000007323273 0.349968116219233 0.6045367271485905
H 3.2210145535226125 -1.1624503365218422 -0.01663252226324725
H 2.1234636979834765 1.7165833215130681 -0.4393361007769108
H 0.9689887432521501 -1.079550633081602 -0.40277408061674974
H -0.19764484743217975 1.7777559281379267 -0.38791209974826757
H -0.8534092013503805 0.11499903103573024 1.3800125126429956
H -0.6562278826298019 -1.983806107735801 0.439265539112595
H -1.6102886724006815 -1.5576838460170277 -1.0825332510552743
H -2.458297881130652 -1.722551726184036 0.47975584676641925
H -2.8946626652712033 1.354515831847932 -0.46002276387637103
H -2.6889634991125693 1.4669638125124502 1.314339879515489
H -3.472674315429952 0.03393294659367071 0.6075005900598893
