30

C 4.445802881183164 0.3851323156692355 0.0924094903822649
C 4.186893242625205 -0.9648072615428561 0.6232230285674407
C 3.1873751444164062 -1.737018051958762 0.23036804675768724
C 2.2255591554633343 -1.2696194342270952 -0.8135696057810121
C 1.2673807442470013 -0.2701337386235937 -0.2918029474610235
C -0.00024616987375276417 -0.34857557434449227 -0.60275174450916
C -0.977908950755455 0.6559505480864015 -0.08129564533590511
C -1.5996055887928722 1.426055109706922 -1.2112954459672367
C -1.9998243607903072 -0.11106550804140727 0.7269539716962322
C -3.0324151073179118 0.7316599858033631 1.3093293928831673
C -4.205540619358497 0.29512547431384417 0.8965670313051517
C -4.003149640395408 -0.8527937024300404 0.02497207529096675
C -2.7154481974761917 -1.1065044194489655 -0.08682432402035843
H 4.132016303873979 0.5258843813649051 -0.9569986245436796
H 3.9138022780686965 1.1144187489026955 0.7434918968239582
H 5.542393669731533 0.627707403170954 0.19072393721292036
H 4.864448766203463 -1.3443855764994659 1.3863213975411832
H 3.02917792848031 -2.7117648713336417 0.6371672986408994
H 2.7730502387903107 -0.8287806081598836 -1.6499063416751572
H 1.6235760781388355 0.5186567952298379 0.34363338564422785
H -0.3834874333665704 -1.1369171973540073 -1.24332030859597
H -0.48739496939862853 1.3611028583982245 0.5920101266184695
H -2.329984088666726 2.1336144176868865 -0.7842463832352908
H -0.8014068931646552 2.0359382939334183 -1.6758164487401452
H -2.0467694836626893 0.7338677445590049 -1.9567007641389853
H -1.433473054037947 -0.574537912572043 1.5688849045983793
H -2.908982381060454 1.6040166897089212 1.9897318448874066
H -5.186648364753323 0.7238291231659643 1.1631854776582005
H -4.781587282887827 -1.4439556854019695 -0.4813015340283827
H -2.297603845461288 -1.9154445985900272 -0.6831431884757743
