25

C 4.8776812016520354 0.7285960652269525 0.06532098269229601
C 4.101844448246776 -0.5292748512020986 0.25661575569574585
C 2.79949131951894 -0.5935994680829234 0.13702921693692835
C 1.9529884582450423 0.5922340407519492 -0.20498188908147053
C 0.8959071560185571 0.2733859114183464 -1.1490712529600926
C -0.05223039485151445 -0.5371224628338653 -0.7164269937640981
C -0.9602126263814914 -1.278762189381686 -0.15717562171783253
C -2.031477312270861 -0.5888721618864595 0.5347288184077241
C -3.3365123756746002 -1.2042112787934158 0.1359923804916564
C -4.261891965630496 -0.28636401564050623 -0.03280047246554216
C -3.686715308770957 1.0812637558667106 0.23519418042494275
C -2.175734288634035 0.8559530230810458 0.1463607631036079
H 4.321652854327442 1.4268537781901036 -0.6001082195872621
H 5.819380376616658 0.47877553906726583 -0.4666966535515935
H 5.060497905968718 1.249013372392838 1.0247410858621593
H 4.666119260619798 -1.4126221200919857 0.5045940267810397
H 2.286627078606504 -1.5318452181532627 0.28646779420824275
H 0.7403606339337215 0.5797367810016378 -2.1461409109029708
H -0.8450152289683942 -2.312957825678828 -0.2492588930909153
H -3.4350638002553247 -2.283085474458265 0.01901706378409718
H -5.28477257821214 -0.49907102500528533 -0.32265749978841385
H -3.9874582319408045 1.7958768629227062 -0.5301128522889698
H -3.9787061256606204 1.4093230201176365 1.2572965804495992
H -1.7053721280539784 1.4950886131397958 0.9238406913277453
H -1.7813883284492888 1.0916873280315955 -0.8444640312108616
