15

C -0.04153799574550722 0.508403466018773 2.511799314564454
C 0.5230440703524867 -0.1234400842701584 1.279308669010471
C 0.2981548810833695 0.3298522931742767 0.08682904241610637
C -0.2849555050450339 1.2590508029690513 -0.9245116852040763
C 0.5530043260482592 0.09878776708261423 -1.3729175711396189
C -0.23391786617669977 -0.9919954250374952 -2.067035820765426
H -0.9551795996273303 1.0950422239813407 2.2741038512572787
H 0.6793092683878134 1.1234346385569145 3.054241434454354
H -0.40286499363102607 -0.27615622457202144 3.2375252660501244
H 1.1435058958496251 -1.0142100221152583 1.4915758442189806
H -1.3849145958150193 1.2427490658010865 -0.9861149258518583
H 1.510717709698196 0.37733770375981607 -1.823925152136574
H -0.5387885303146581 -0.5407868909373426 -3.0567722209783694
H -1.1857412875989395 -1.1653367849553988 -1.5257514295406804
H 0.32016422242171066 -1.9227325292508102 -2.1783546165476486
