29

C -5.212064185291074 0.6307740963139545 0.7904841703853384
C -3.7500647937279514 0.500261441470916 0.45570582081252675
C -3.3465869781684017 -0.2042399701258443 -0.5749433886083432
C -1.9138099715414616 -0.2842815357045918 -0.8358457553913929
C -0.9325739676403489 0.28871569029880545 -0.13334287485314553
C 0.3605059434972419 -0.03348921917310061 -0.7196932476307744
C 1.565590189251238 0.3324935469325558 -0.3251510215592107
C 2.654339657545019 -0.18391608285073474 -1.1658200732125321
C 3.877615382326757 -0.5618814691564459 -0.9269584173608968
C 4.5985477919966105 0.05052807134813349 -0.03763821838404092
C 4.68749295439053 0.012528361138384576 1.4344134996270124
C 3.4354330624007416 0.5171647945811957 2.02248525658316
C 2.4941639746834 1.3766630686370207 1.8028305197093757
C 1.6208783595403435 1.1728979877183379 0.8623106633009683
C 0.043347771166825665 -0.8725015727263626 -1.863980747265698
C -1.2924692915975926 -1.0214109141589915 -1.9345940585425145
H -5.7796881635328665 0.26379653075449067 -0.08696431229209022
H -5.396642433615755 1.6983798471930875 1.0191890928662488
H -5.46473556820761 0.04106980415376368 1.6960630016158298
H -3.0876468994452293 1.0268212726691905 1.126074516978018
H -4.080206633677595 -0.6903218160807464 -1.1811201384048098
H -1.0932976733432715 0.9114030700271076 0.7595448965174452
H 2.3631216225813936 -0.2611008915555818 -2.2025587879979565
H 5.287319503491162 0.7440388500549387 -0.48864220341637615
H 5.550195308589808 0.5703555638383496 1.825205722620762
H 3.224195010857756 -0.006968158753185112 2.961448588987851
H 0.7172621647178523 1.7513996175049322 0.964053992692664
H 0.716609698107024 -1.3263632537718801 -2.5670883109284373
H -1.8468318353546922 -1.5902794777747358 -2.6754681868491885
