22

C 3.6912598846371423 0.5755673348540605 -0.4366067574879729
C 2.2188649593975 0.48912971470491057 -0.7175556938788622
C 1.5667834707296724 -0.6005723477982996 -0.36071754836202563
C 0.09821795484132449 -0.7092589762383367 -0.6306515108345487
C -0.482692450264131 -1.943141461918173 -0.095517484715827
C -1.7721047284354474 -2.031362337492708 0.20597026307765007
C -2.6185394857108477 -0.829277595930152 -0.01750698124928698
C -1.880168716085518 0.43554329192920915 0.12836004219984393
C -2.562537411604742 1.6675275604587205 0.6024936096558331
C -0.5922226015841535 0.4994754703091092 -0.16055897362568444
H 4.2862752977374825 0.19984343589975714 -1.3111173056103493
H 3.9152350905382285 -0.018463498698619452 0.48841622787038724
H 3.9291910273762283 1.6386463215140006 -0.21261617866201007
H 1.695595694148782 1.307222884575634 -1.2059561197569597
H 2.0697922847188055 -1.423719236403711 0.1255847029531893
H 0.15722452215595797 -2.8064340864833675 0.058170803858686525
H -2.2063815587008246 -2.9640110673924878 0.6095479795899653
H -3.1503727783408686 -0.9105723693829924 -0.9790732468777988
H -3.045748586553145 2.1986949313366346 -0.2598451168782435
H -3.401295466686313 1.4364896615982576 1.3090037976759705
H -1.88062898143834 2.3711633769312983 1.1111521589102678
H -0.03574742087682514 1.4175089936272307 -0.05963591665948384
