23

C 4.427122687967824 1.041047806739826 0.04210434764828447
C 3.6602695834774273 0.11610413706700279 0.8722902470207116
C 2.771406252794417 -0.6018359857748161 0.22965450477956983
C 1.8198311836597174 -1.215266059563904 -0.45827149630557057
C 0.5539054935174661 -0.5106046041514427 -0.5479837378581449
C -0.44154193216492893 -1.0391665852102452 0.3545946492909559
C -1.661733407865893 -0.5415204290266432 0.21642579628693695
C -2.8137261577047585 0.04918818023798599 -0.001893513305115632
C -3.6435039038469546 -0.6274393185533456 -0.9852787714582194
C -3.0484307460988354 1.2553342277977613 0.7637732001308905
H 4.6716950135524336 0.5642040584453101 -0.9204525611261981
H 5.337089019657847 1.45511342997054 0.5512439603519885
H 3.7699586021484843 1.9216636032977843 -0.17645493162616135
H 3.705986390714601 -0.06672628270187056 1.9105606848341168
H 2.1368538766975935 -2.140540904333292 -0.8436436418878145
H 0.18963666499496093 -0.3067335333994955 -1.5639754635406151
H -0.4039619262559168 -1.7547229830988686 1.1195305122258656
H -3.25625661694831 -0.5588459895491151 -2.0271368147152597
H -4.684146767478621 -0.21893509069225137 -1.0300110023829283
H -3.7596140911024998 -1.6949324637195857 -0.6649930417794241
H -2.142005211828897 1.9071552575030486 0.8802106772344008
H -3.774426906439431 1.8963986985729406 0.1862007060123514
H -3.4144071014474084 1.071060830142859 1.7973738713382554
