34

C -6.216893280764484 0.3943694969963189 1.12543571964168
C -4.874896603498293 -0.1398842307221573 1.3407255861890104
C -3.923152587124257 0.38273744928549125 0.6025469373301597
C -3.0599724016112697 0.8969331164873154 -0.24644979997563737
C -2.944173033642633 0.2100977649106678 -1.5285317917520875
C -2.085455231269226 -1.0126143402596546 -1.4969970916520667
C -2.3793975141985015 -2.141179967627392 -0.6499328308126736
C -1.2394046071802258 -1.3588332871314583 -0.38249764811106723
C -0.11169242325345224 -1.1946422277256468 0.48466678416406805
C 1.0343742551032111 -0.953742322462388 -0.08866014111401849
C 2.1110230197423383 -0.6156918303307297 -0.7510025864595107
C 2.3073547669559633 0.7799049250554781 -0.9804540665952002
C 3.450878047250732 1.3394409868506838 -0.663219165597167
C 4.507571514689824 0.5334185824777512 -0.08099815172947414
C 5.674993201648634 1.0329822357180896 0.2585245783469003
C 6.726200294259942 0.1875488951796771 0.8472508359127262
H -7.0129827133010085 -0.17927756844693976 1.6418710886231924
H -6.2467920019103325 1.4851418623058206 1.3735990801705302
H -6.485972299194511 0.3439857667800693 0.03317099244916201
H -4.537609875533226 -0.8894655972548068 2.000793399638405
H -2.5631633230774074 1.7503993273953522 0.12296502452869676
H -3.9462891141229783 -0.1037551107916521 -1.9452482284965362
H -2.5240986010606052 0.9065041067447706 -2.292051837042528
H -1.6678191772485529 -1.2845423703954955 -2.511639396338076
H -2.958515377675428 -2.9883871696241004 -0.3412688925428462
H -0.059993799423660246 -1.2374069984688465 1.5380492188727597
H 2.7075577072623784 -1.4401415744367534 -1.0370231349229047
H 1.5337825630053235 1.4215212691827888 -1.4179139948443735
H 3.641289659649562 2.387814743635111 -0.8190937535057395
H 4.343645033516568 -0.5397700925236896 0.09048700069260705
H 5.824722081712194 2.1112392569181893 0.08048664776565943
H 7.266476431471704 0.7165560969207793 1.677565183836565
H 6.274335964910856 -0.7125719276016554 1.299697971144476
H 7.434069423911691 -0.08868926704079935 0.043328008672421515
