37

C 5.409340950292447 -0.042353300213959034 0.7872907176091313
C 4.362362522105577 -0.6975207400489681 0.018958627477148184
C 3.4696044396674526 0.10226880213050177 -0.5376818334950483
C 2.5755406467376587 0.9782576909463203 -0.9546587506349898
C 1.4918248466795665 1.2702405686296405 -0.032992548216263684
C 0.3013213277659808 0.3475652500821823 -0.18851454830482398
C 0.08300403292202593 -0.6410654212221512 -0.9867572432455739
C -1.2409319282128788 -0.8991555703064781 -0.4382961808568904
C -1.3416673349772863 -2.2872767028219436 0.1801673214351585
C -1.0696955508885846 -3.3775882528020302 -0.8127534350464409
C -2.697836760511437 -2.5274254878396314 0.796579784178569
C -0.9896759939191031 0.21252340590694613 0.45585275970831896
C -1.796113966788799 1.4561341815839666 0.2525732194802168
C -2.9502868118102787 1.6431168813302184 -0.3232375592403466
C -3.3403488370552337 3.045245072238054 -0.2783695558322731
C -2.392185262779102 3.738960486227314 0.34621592561150233
C -1.330367090739146 2.7796064210988214 0.7351452392685752
H 5.919653681001768 0.7094275803422617 0.13590412090843174
H 4.9568496856508135 0.49662841727427154 1.6579995833101102
H 6.184652401952601 -0.7649650912714426 1.162497837005487
H 4.178292988640561 -1.714699159350826 -0.18000894517625646
H 2.7851016422246584 1.3483066928494354 -1.9203111951458722
H 1.1023374103812333 2.2887804524382163 -0.24994017315377912
H 1.831531501184488 1.2752922534945657 1.023900774049738
H 0.7316602025717635 -1.0770116876890274 -1.783755299245882
H -2.063833018812878 -0.7209596834460456 -1.1788030246605616
H 0.031757004607731586 -3.5880394361278527 -0.7672711649435395
H -1.562107488467155 -4.310641826989078 -0.4375278968455243
H -1.394018859036522 -3.121153468076717 -1.83862005607742
H -2.5256679502394292 -3.1159813235239713 1.7454863116617378
H -3.292492002018731 -3.1493863369661295 0.11619239633713238
H -3.2147302702055938 -1.5656130279272313 1.0114644542521465
H -0.9309680948396556 -0.061791490287180215 1.5459148038415316
H -3.546837776708092 0.8638038506023276 -0.7775221153578877
H -4.235901542439719 3.530534239223074 -0.6643183985930423
H -2.3561178353514456 4.784266725740169 0.5522115901015144
H -1.1430509085860738 2.7916690347720308 1.8269844578368029
