21

C 3.9049784189247405 0.6171873812380817 0.42056021699852575
C 3.201009131732722 -0.678059726426977 0.4547628688567791
C 1.967793712083054 -0.7784602541882348 0.8561576100856086
C 0.6464668614426146 -0.7846104549947532 0.9578472723150162
C -0.12505266908516777 -0.3889704640146377 -0.27335245398089775
C -1.5875437995107258 -0.7236555370428793 -0.07691857193027607
C -2.168545640425898 -0.010897624629601673 1.0843265875706816
C -3.1087708613766947 0.8345432367449329 0.7068497030420113
C -3.2099366006462877 0.733065058126876 -0.7438732363616096
C -2.3498366604607437 -0.15040672963296198 -1.20511071296467
H 4.75584978384178 0.546601977845365 1.1401253305254442
H 4.247763618152905 0.8672392262768014 -0.6051751508519897
H 3.2559404240868455 1.444172130054816 0.808493855330544
H 3.7164722584633876 -1.5579721907090622 0.13693636073204635
H 0.2454685681349864 -1.052813929375332 -1.0796229988741943
H 0.007909776495473479 0.6834122450235037 -0.49103576416887845
H -1.7046110690456004 -1.814813997477469 0.012385832744505281
H -1.852047206395739 -0.17390138942226147 2.102136286560342
H -3.7232302405585957 1.5015426050465477 1.299243907017574
H -3.8945210624099493 1.300411614897709 -1.3722011469197368
H -2.225556743443216 -0.41361317734045333 -2.265000320208712
