33

C 6.548929690122423 0.6750669382437704 0.1812214660075794
C 5.983853906506196 -0.3091161686492401 1.1031288321555255
C 4.881185652481234 -0.9033084354702223 0.7029389342825256
C 3.7512561510584206 -1.3790006753913953 0.25891726283247096
C 2.552471644730818 -0.607593705171435 0.6218486294502417
C 1.3062099832155176 -1.3503520572432883 0.5355532622363399
C 0.199100110244913 -0.6359198327679264 0.6575602596112649
C -0.8323902679860191 0.17917906033700806 0.6676272198727129
C -1.2531231060539805 0.7182704751979447 -0.6215396098963293
C -2.0805050222393295 2.0146176996626584 -0.6265548651815146
C -2.7012891551010805 0.6620882007061903 -0.9356231377673291
C -3.7246940752487387 0.2065574719083059 0.051711497641170986
C -5.105795445203941 0.2817651734969507 -0.609490304512856
C -3.5506907175356575 -1.197873935092479 0.5313934255326654
H 6.380111392246911 0.3816858528388079 -0.8747008528400503
H 6.004046416866704 1.64675437594864 0.349322387501461
H 7.615425410750626 0.9085931544943592 0.38725403057049806
H 6.317806912820524 -0.6256950620361047 2.0509227560454177
H 3.8339424934454196 -2.26115850451324 -0.30978418163765237
H 2.506006354175528 0.2633399285876689 -0.09675349791764526
H 1.112146706617734 -2.374807939513643 0.38927159878626855
H -1.2256302982920995 0.33881741101898627 1.6324312314216145
H -0.5783278762392486 0.6690434460250899 -1.482040887411296
H -1.9331124899937673 2.746944881482473 -1.4178859433852375
H -2.257869235924371 2.4559777230767277 0.3750658893929207
H -3.0212112042385244 0.5760539468466501 -2.014281034400096
H -3.804091776174183 0.9129754315233517 0.9301432290898419
H -5.913624740210985 0.30470043806131697 0.12111239336496872
H -5.150420210085761 1.087083849684692 -1.361388140634293
H -5.203136661716552 -0.6773825632433266 -1.1793493803381032
H -2.5305635274133427 -1.589962804897646 0.4898724572459964
H -3.8808666917746835 -1.2318393724567374 1.6057212308892341
H -4.2451503238516075 -1.8855044026943297 -0.014597629248428176
