20

C 3.4062426608793235 -0.7960177065076443 -0.43100669248685736
C 2.851566941264046 0.5498628076478482 -0.44072400182131094
C 1.6061540252205835 0.6662860658407989 -0.03189737341370539
C 0.3379334928309125 0.6608001934289326 0.29591093967129023
C -0.6032862719989405 0.44675973926392887 -0.7963856761334259
C -1.7830143063238517 1.3464641897748124 -0.754636268370896
C -2.8766662208454443 1.0529145749380435 -0.07308362240609291
C -2.9063074075456843 -0.2297231935796119 0.6720823434584993
C -2.128615972533121 -1.2694980653610082 -0.05527683796759769
C -1.0380015599854848 -0.9871406554517334 -0.757616187883262
H 3.2751940528779113 -1.3071462147315176 0.5394895366850792
H 2.912975771412061 -1.4329806040476252 -1.2168338594744983
H 4.493215105979375 -0.7846511010010347 -0.7325813985474267
H 3.2819556481932897 1.4703397834587157 -0.7258822110097827
H 0.16806176198901818 0.8130348087243315 1.321711606536283
H -1.7514716187177413 2.2773301069916148 -1.3001387733279746
H -3.756777147177629 1.6933371897363572 -0.024392796100938155
H -2.5605257934780425 -0.11782543113687088 1.723391499987824
H -2.4627928842724858 -2.2912262031695336 -0.010807153284542858
H -0.4658402777680505 -1.7609202848188044 -1.2943461489881363
