19

C -3.532295770425033 0.7235259219547948 -0.46775551296924667
C -2.4737566924269667 -0.026462134117879333 0.23782644260742916
C -1.2012209127114182 0.11726119732116053 -0.024051911323104084
C -0.15265056590605544 -0.6204973018402106 0.669399433268855
C 1.1235415737180645 -0.40974467107485363 0.33603374719534335
C 1.6449969815725445 0.49965103424926177 -0.6744591385449626
C 2.959854503355832 0.3932359026231136 -0.6742681661747393
C 3.38718608300071 -0.5875601114460528 0.33063844934208386
C 2.2961799055867673 -1.0539589215551712 0.9195533117012784
H -4.30372715934572 1.1267494114599248 0.23083122121146346
H -3.981667225784916 0.0550412546660134 -1.2173890031123393
H -3.082458495694192 1.6104042654753628 -0.9608972764851141
H -2.772755061435066 -0.7229075379584211 1.0030724225151788
H -0.9347293954145995 0.8291323830566442 -0.802947579697258
H -0.42210637857261235 -1.318555231408784 1.4338432668035288
H 1.0498808979221106 1.1449083153213486 -1.3086410832362312
H 3.6796811778423955 0.9190511514403082 -1.2944229647644812
H 4.4063351943507705 -0.8825682370641521 0.5564740208038922
H 2.309711340367216 -1.7967066911027885 1.707160320858454
