33

C 5.622173844789369 1.9503832590100025 0.6902525119876434
C 5.703149984959086 0.7525864828114185 -0.1330595582321012
C 4.8921293392730245 -0.23449525503581917 0.19777242401144843
C 3.9718072170625565 -1.110560707779442 0.5507542863943721
C 2.6729045581595745 -0.9550443438912882 -0.08922434568430919
C 1.854455658423263 -2.137372003264037 0.13424817822404317
C 0.5526827501675619 -1.9273379199034395 0.24046980828868975
C -0.7266340383717917 -1.6180808446094639 0.238720830851814
C -1.3611943738897438 -1.6214086985708918 -1.0427593354442748
C -2.1159421273912926 -0.6636778698680733 -1.5170818595676931
C -2.352053654398396 0.5400587294445871 -0.6784423035883957
C -3.81437374666127 0.7438976645763404 -0.37898050575453013
C -3.940510029890766 1.98783947245109 0.47461422102562206
C -4.425998952628126 -0.4318818151113792 0.3394008256855175
H 6.276213426555093 2.770512429911275 0.27161102246047314
H 5.886623177088464 1.7623397999503978 1.7704770154824943
H 4.598477078428719 2.41143811891916 0.7261292255960343
H 6.306013831658019 0.5252036933995874 -0.9670862029120721
H 4.317309716238533 -1.8080378217784292 1.2591867880696783
H 2.8184478815755587 -0.683007728591265 -1.1472727527818336
H 2.111751935463484 -3.152961847010663 0.22820245148560217
H -1.1094229583038964 -1.4067844286091309 1.1973557235570778
H -1.1992474645070883 -2.4992956413121354 -1.675021448394251
H -2.568887064369646 -0.7233768810732929 -2.494414290194429
H -1.7824832305029354 0.4880427973669262 0.26586464979670255
H -2.0054167705277877 1.4319571854488786 -1.2407001803210191
H -4.381185271525862 0.8531934076596864 -1.339527433461074
H -4.117220282554938 1.7307723041463678 1.5582492005665485
H -4.807796926062781 2.552101128379663 0.10214420984275405
H -3.0155876333439227 2.6167718554031114 0.40146020552135936
H -4.144387366737777 -1.3787311903132577 -0.1709762193235937
H -4.182316285716681 -0.4609851210250275 1.4180748089780761
H -5.53348222245674 -0.3040582111325433 0.26844841835418
