24

C 4.041345590187295 0.36878105439717296 0.01194696733318375
C 2.813434992216088 0.9407128890836228 0.5919023923893332
C 1.630258498211724 0.3831859056089599 0.3769116904676459
C 0.4300681874754538 0.9920276897348077 0.9784580275004565
C -0.8211506840820113 0.2731279845570842 0.657615205642822
C -2.079016747328504 0.5469791157479797 1.0310412779757414
C -2.9618605692810682 -0.47661329717598866 0.4441314917663998
C -3.9848371036702996 0.19289150487144677 -0.4421142910587176
C -2.0475829897481765 -1.358661787346504 -0.30406235575241086
C -0.794123515109813 -0.9096022479879032 -0.1720963437442524
C 0.4447379991406607 -1.4376032919518553 -0.7211644154000458
C 1.5742046801084932 -0.8188130708016964 -0.4538069979482972
H 4.908085381486938 1.0308954364800866 0.1659437338067257
H 4.20489427180071 -0.6480973475085828 0.463033215364135
H 3.9117779586775083 0.29082822690776233 -1.0964037767828991
H 2.876009362685714 1.823153632733891 1.1986420478295012
H 0.34762540316526286 2.06525359380374 0.7140796329165435
H -2.4069832957520627 1.3731767987612757 1.6554891813102215
H -3.7228427864355043 0.11440998059762458 -1.525791053295414
H -4.997574649664692 -0.2468016736638761 -0.3387642357747114
H -4.069033272026061 1.2698411882728176 -0.17214876146055139
H -2.2934772854554706 -2.240590201046564 -0.8841349286152721
H 0.462973646816388 -2.337764982864567 -1.3521508620847182
H 2.5330669265814825 -1.1907171012106508 -0.8528284007767186
