19

C 2.9816379227370926 -1.0110160944973492 -0.4626634516367335
C 2.3778151231848543 0.2641709152145503 -0.006268808316227725
C 1.0731150171804165 0.47166575245189163 -0.11651914779183771
C -0.046635380716899336 -0.32406446937082706 -0.6302075717214123
C -1.0361152411683883 0.6127059004279438 -0.011388390864373111
C -2.3267489305667786 0.5552762282048356 0.21234419009487743
C -3.1291005540046273 -0.6314220712182964 -0.17347935181257262
C 0.0931282038307038 1.5562744319437436 0.20031719514567872
H 2.9288087805175747 -1.7974858389461597 0.3083694085448494
H 4.0348321558109355 -0.8067680725072529 -0.7253793960637706
H 2.494773911278439 -1.4144183306058884 -1.373743401494714
H 2.9725657902159233 1.0552460888928277 0.4251145666754804
H -0.1921389346920406 -1.3328022788194818 -0.18554064689290534
H -2.812156654940861 1.4051404851973024 0.693933407416249
H -3.1513796201075848 -0.6859962832560039 -1.299804703718083
H -4.124347422652326 -0.652567458541611 0.2583736879060555
H -2.5236496227109955 -1.5340529834660894 0.13229411782130931
H 0.19800015334094437 1.9213585773072743 1.2450264606683084
H 0.1875953034645011 2.348755501589014 -0.5678486479700018
