20

C 3.4573242533778616 0.23853433927769843 0.09332046834168801
C 2.1323902163103763 0.35083072925037323 -0.5675336940415531
C 1.0194250315314253 -0.18259076548672773 -0.09969405900292426
C -0.2713867291634869 -0.03875832719517939 -0.79963676511671
C -1.4070319529907238 -0.7627205989047978 -0.1643324579278626
C -2.0362911302441087 -2.0612597308767353 0.18998303308876874
C -1.4150430692349 0.6025762287174175 -0.16336782662629726
C -2.16506658050242 1.814986126781005 0.2518763039463711
H 4.187534473016002 -0.3271483750904062 -0.4948130541037714
H 3.3890360408259035 -0.253632923536006 1.0883188744713563
H 3.830559279633068 1.2911595407798506 0.2218839314595402
H 2.0879579733413083 0.9085473842986052 -1.4923847376440766
H 1.070665452963006 -0.7349739805659294 0.8194325250032806
H -0.25444765424107735 -0.19506030701356905 -1.9110212115357794
H -2.5215220793393565 -2.437707301825394 -0.747344150526727
H -1.230547061849243 -2.739080512115965 0.5400468597684898
H -2.7599832288938684 -1.9086421885709313 1.0110230379068565
H -1.5704865813322686 2.4034041532669543 0.9848254617171374
H -3.1256182597903575 1.5878287188558227 0.7300119316844011
H -2.41746839341708 2.4437077899539115 -0.6518437770652671
