19

C 4.10744125206109 -0.9161811195045575 0.5374307683362152
C 2.9150601088001626 -0.9876728910082029 -0.2933349746595261
C 1.9941139990324448 -0.0737632750718441 -0.05096984994925142
C 1.0998070537955902 0.8125687634009112 0.3153690021547233
C 0.20107824639300692 0.3924926447629505 1.3468327525138215
C -1.0801934239795745 0.6915773128921086 1.1889564599709286
C -2.247086352425888 1.1308445357661538 0.8183523122694837
C -3.033375722685677 0.34660367269433173 -0.10653192100412576
C -3.9826052295229983 -0.5932871838522085 -0.37495290576445245
C -3.349099436683492 0.023162373777588258 -1.5328746322233233
H 4.6183653427333615 -1.9144253951791101 0.6755040965002985
H 4.854564141273568 -0.17587619018684372 0.1406516302943249
H 3.8391076468384604 -0.6004129738586171 1.5836090786787291
H 2.649910821365629 -1.652529698254259 -1.068194395639213
H 1.1700492514681236 1.723704290937053 -0.20773764217466845
H -2.6193022165213593 2.0595222015637384 1.1879402387575273
H -4.697510157642981 -1.2962245473655172 0.032664785295553965
H -2.60764185565539 -0.5720206020285401 -2.108277631377678
H -3.8326834686443205 0.8616605568028811 -2.084437171979125
