21

C -2.9632854392667634 0.9829990524622328 0.5404390553036448
C -2.8820566313394207 -0.46730211998066973 0.6465812443746094
C -1.9396106173508298 -1.0409679359011546 -0.06441204736487702
C -0.906772971718208 -1.518562986951475 -0.7281609777584472
C 0.3288837765516637 -1.5635916234060887 -0.008202057131063058
C 1.1629779573504553 -0.5474290580857636 0.12326979915486573
C 2.4535742060103254 -0.5459872749021162 0.8588114789041991
C 3.2469571534408135 0.4926519947113733 0.16683371569196967
C 2.449284658139648 1.2664023011739147 -0.5502230252695914
C 1.0417277342013933 0.8249263643366587 -0.41073791967495954
H -3.4826325374012312 1.363596476769183 1.467751744775464
H -1.9804306495128625 1.493077641384925 0.5224805793367767
H -3.599373592789739 1.2463571896492356 -0.3286604452672417
H -3.460490971130006 -1.1488541772976153 1.2081829898463974
H -1.1425581994318341 -1.8025758487988133 -1.7112728177177465
H 0.590870471510139 -2.5185376797367383 0.4646992125662404
H 2.9633736676688582 -1.5279741736057135 0.8345533072053978
H 4.3321661140151315 0.5641587849280082 0.2687525449432149
H 2.811204391908346 2.1206903851677033 -1.1620446503742898
H 0.5018969399063338 0.8470931680734008 -1.3925675084202234
H 0.47429453923754383 1.4798295200093003 0.30711858614950277
