21

C -3.8008735794425395 -0.2016326095100164 -0.15814758391114775
C -2.781662407699003 -0.9160613323813144 0.6212035068897943
C -1.49029863032053 -0.6201451859996807 0.466389114914426
C -1.1479851769411424 0.3875833854056055 -0.4584078443123996
C -0.09671938074306925 0.9533131718400917 -0.8897460408687174
C 1.254621937047328 0.6194351591683696 -0.4318307163547096
C 2.3649036009887023 1.1872554460362321 -0.8743666098973081
C 3.5274779964426353 0.6270888688825129 -0.21521813124739544
C 3.130978873677263 -0.2862590614658343 0.6366141650381173
C 1.6601579804887918 -0.37213836528972793 0.5809959565185167
H -3.9307460700632757 0.8098659171537124 0.2980723783775803
H -4.745138435719987 -0.7550409133695157 -0.2648823858845839
H -3.340424882079616 0.008533964993509275 -1.1683315768066935
H -3.056600778534129 -1.6780441621436037 1.3189334935247479
H -0.7979897340450878 -1.1966012091656277 1.0770839345797534
H -0.1397718897862612 1.759803703746151 -1.663357743281587
H 2.4063109044939877 1.9825769187604938 -1.6434969634789032
H 4.585839311909206 0.8964525524741005 -0.3748718900761111
H 3.7747023488447757 -0.8936321456326906 1.2889727080006383
H 1.4183945174207928 -1.4137023019299353 0.2764733612679503
H 1.2048234940610096 -0.14159226399350774 1.5779188670080344
