19

C 2.834038046498001 0.8365594481908796 0.09154603324306089
C 2.5518045871044412 -0.610220400154774 0.016007853053958167
C 1.413729336400444 -1.119503616908293 0.4559231970470228
C 0.41571650916266456 -0.2107454958182799 1.0312195904900454
C -0.9543792633647794 -0.44186511089557373 0.5730266792864697
C -2.0693032844425114 0.09157049383245816 -0.1406833238358118
C -2.577072479070623 1.2529751602641275 -0.8996197923629662
C -2.1604922312734645 -1.2607153575418424 0.4604515162226987
H 1.8970419279114177 1.4056812445282447 0.3266525194082332
H 3.532923263240806 1.0783690167546043 0.9409366871688274
H 3.2676978094701266 1.2106079987283347 -0.8770613253110943
H 3.2878389284612255 -1.2753701843117338 -0.4075581793835305
H 1.2064971328785978 -2.1748758427147656 0.4014171685814347
H 0.5253470575380299 -0.042163270982605985 2.113864291132287
H -3.5939482856870066 1.5078647267159533 -0.5383384164414373
H -2.653583551231576 1.0866461032630124 -1.9823789514068584
H -1.9579991874318141 2.1651870900669326 -0.7071616850269307
H -2.1467971727571973 -2.146881163007001 -0.21643446340614694
H -2.8190591434068275 -1.3531208400098622 1.3683256924600573
