21

C -4.065104911072512 0.27049029605876274 0.17725563833269295
C -3.2774650314308 -0.5696171998341871 1.0715268339798933
C -2.033034194593049 -0.8016997883244976 0.6899715985504236
C -0.7956664660254372 -0.9020037389799165 0.27451620328424714
C 0.11260295018348145 0.14821848067629925 0.7350173866070658
C 1.4157285480317423 0.1342487618136488 0.002167540015961212
C 1.6303775393318647 0.3010935236988877 -1.2788702916471781
C 3.04670381480892 0.21286284896012225 -1.5742595381003603
C 3.7084817397970475 -0.012316787340650257 -0.45037044080924454
C 2.723117417463667 -0.08026244705941117 0.6423706180549905
H -3.8121667367775163 0.03615393756889013 -0.8680831482818872
H -3.729563724711935 1.3362240704836372 0.340504694921622
H -5.157753530776372 0.25580354188138377 0.3719631845599312
H -3.524683770596983 -1.0318105534744444 1.9827042982152445
H -0.6144041342450985 -1.7348092858130335 -0.34532584896128243
H -0.3352970981475446 1.174747464232572 0.6072703804881638
H 0.822892676433721 0.47967303419136575 -1.9902019979373917
H 3.4443991339084965 0.32393503976032384 -2.5890769891430034
H 4.778933055843237 -0.12224814578344523 -0.3766935471924216
H 2.726632156984031 -1.0436253072030388 1.186288888609064
H 2.935270565591342 0.7289748641953243 1.3913245364533606
