19

C -2.1442504256181576 -1.3630790589246398 0.6762208417632365
C -1.7889376137850772 0.07401821396118852 0.4536218944300937
C -0.7678549652420457 0.45075573126404106 -0.2791566306035808
C -0.4890360870698969 1.8871752087442577 -0.44617979214343956
C 0.08699779211068513 -0.5539213788226844 -0.9253943258428995
C 1.46315711221054 -0.49580170267766543 -0.34346003084933024
C 2.676308323202865 -1.037861271943544 -0.44032650767262793
C 2.4846621140268117 0.03660557524014139 0.5914352531438954
H -1.8471391465149134 -1.7043037788892856 1.6839367520918889
H -1.6757418732467553 -1.9801358464151835 -0.13283024819021047
H -3.2451962423073697 -1.4332408050279077 0.571927680217009
H -2.449032539385406 0.8048518718996311 0.9514943611376357
H -1.0455927245602088 2.2132439001437025 -1.3736478716738187
H -0.9250668721718668 2.447154529649247 0.4205542159794608
H 0.5984299781527952 2.1053130169345766 -0.556268463952623
H 0.16725229477102213 -0.3750901269837388 -2.025456941215452
H 3.4322717925129864 -1.710436502265528 -0.8448340190396714
H 2.535082715203387 -0.3830455194828974 1.6333929541778474
H 2.9336863677107052 1.017797943596337 0.3849708782425661
