14

C -2.4955626624795695 0.6614621879391188 0.23231078681806933
C -1.8237781413367737 -0.6371596769665987 0.2764801052377469
C -0.6150439408149895 -0.7178314323528153 0.7324386787492497
C 0.690547244378566 -0.732790003146306 0.9303538305808251
C 1.5436232624977768 -0.41544981624548005 -0.27024050805283983
C 3.02179486206894 -0.48410862466267146 -0.02467313761901221
C 2.4235458708285926 0.7586891625463162 -0.12590804502910816
H -2.6076089030013203 1.0209104332719823 -0.8151873771025168
H -2.012804230633699 1.4506586341486103 0.8366762049956696
H -3.533168913168358 0.5246180582378873 0.6552612488134082
H -2.3395001304058574 -1.5013920559575848 -0.07271926381999706
H 1.245391603434471 -0.7980899800296793 -1.249205071573558
H 3.9743438657271346 -0.9642044722786473 0.1342322858464744
H 2.528220212905865 1.8346875854959943 -0.11016097722011758
