19

C 3.2172018446557344 0.7560088709651022 -0.5187500601692829
C 2.7992669837636748 0.23305523544588214 0.7757331776945724
C 1.819255788836422 -0.6484845045403413 0.750010111787501
C 0.7905249610706222 -1.452945773284572 0.6314864032075261
C -0.4944605422014155 -0.8198114459332333 0.6631855594266827
C -1.4459545038925663 -1.1938888254956221 -0.1655208020532686
C -2.7934552967422426 -0.5551597408444189 -0.1577478134270726
C -2.6660224442433558 0.9248619907638184 0.13929358255538563
H 3.6172733600964797 -0.07305045874705476 -1.1333655775996376
H 4.038512137507738 1.5070531095284678 -0.3262723158205082
H 2.393370649215477 1.240275938639138 -1.0941041042508497
H 3.150187568713892 0.44200206793685076 1.7476442538466166
H 1.0510832642866281 -2.469963579131948 0.5261060244686638
H -0.6868196622025534 -0.027104373112718804 1.3736084864735276
H -3.322269728347059 -0.7271122631361842 -1.1099975816385554
H -3.382654173646763 -1.0016343436644624 0.669247559610868
H -3.686797758363674 1.3600627059000796 -0.02017507903083611
H -2.407939274685377 1.0551606697599696 1.1944199204219221
H -1.990303173821504 1.4506747189514058 -0.544608879028673
