24

C 5.100717739261068 -0.30341490399797943 0.9916512170865964
C 4.384520208111337 -0.22115702291987724 -0.3000897857151848
C 3.1014846771955273 0.06076200671814098 -0.3331969049014508
C 2.4271128758943843 0.13445527059878168 -1.6132545422895819
C 1.1513259990841012 0.40823965782419475 -1.7572111172223115
C 0.23481067165199718 0.6759171210876234 -0.6570663949995162
C -0.9306307418629345 0.08392384712848945 -0.5769007217839136
C -2.109556081657077 -0.42357013398019305 -0.681310377268155
C -3.334601571418637 -0.8717315894271013 -0.8544959738391545
C -4.18815186853877 -1.1627960092295087 0.3016185134852355
C -4.306446749452148 -0.015951655433592938 1.2706906160347589
H 6.169213171250628 -0.49797336775599865 0.8605260608642143
H 4.585343552258683 -1.0566792062362025 1.6251509801491455
H 4.949328414242067 0.6743949735567454 1.5056774333557952
H 4.924205262217846 -0.3941478897836142 -1.20864659873547
H 2.5081430900852784 0.2444343849385976 0.5549452984013034
H 0.7501377106117711 0.43781019172413993 -2.7606142157185003
H 0.5507848249650688 1.3858156773665538 0.098329617317332
H -3.696218118195471 -1.0202628041212134 -1.8839774891909813
H -5.2334602878027185 -1.3607018799090815 -0.07321172865503338
H -3.906243848227865 -2.1218414265497536 0.8216557678046675
H -5.209338277906419 0.6115162873595156 1.0215830602763163
H -3.4081834609743487 0.6018812905962716 1.3368030010154743
H -4.51429719079335 -0.38526482665957834 2.3113442845283725
