20

C 3.315932002810432 0.21048442677843993 -0.4497453163645649
C 2.4602593123560643 -0.7616618987413377 0.20142229202366566
C 1.184815490527854 -0.4564407175078595 0.19234151874931282
C -0.05547716274397241 -0.08174953119508101 0.15350720116848815
C -0.5032006914403855 0.7136850681366064 1.2534434354724322
C -1.7880043946268496 1.1188916008169805 1.2001764489439
C -2.673350874851852 0.7645793709647276 0.08037571242267452
C -2.2601636349220446 -0.5398147939792972 -0.5903636850917148
C -0.8030186407817688 -0.5286267237699694 -1.0114386793319219
H 3.514821383793358 1.0483222983527258 0.2526226020275489
H 2.871980058782268 0.5507274534958033 -1.406966814312239
H 4.30816030113276 -0.22542355099432826 -0.6937862029624738
H 2.6652640147972213 -1.6726494879021014 0.6840512531451459
H 0.09993098434195387 1.005611082119697 2.10275578092659
H -2.1593792424649134 1.72226789177374 2.016104627919545
H -3.6856738822759647 0.5821140782757281 0.49842744294449925
H -2.910067231673683 -0.6720095656447336 -1.4748052081367309
H -2.3740052111072774 -1.3382259325341048 0.16811533823945696
H -0.5486855662828474 -1.578502462657349 -1.270881778089781
H -0.6601370153702886 0.13842139421170255 -1.905355969693559
