24

C 4.665346290324562 0.7168995208438258 0.3683671393554564
C 3.6669644099739838 0.47668613719223785 1.417239112004751
C 2.4098055100015485 0.6163065379481024 1.1273910349480532
C 1.1440443802622804 0.4778685087038035 0.7507873042250065
C 0.7555972363378682 -0.8281046716635015 0.166181225433625
C -0.532358210738982 -0.7558814067228454 -0.6010690359613867
C -1.625863281877746 -0.32187290288658893 0.29083747876649557
C -2.7119499046919824 0.281726969013797 -0.16633577341364134
C -2.817569503129927 0.5223306638592178 -1.6268027118476898
C -3.8239642240291 0.7288532533262252 0.6955731338762705
H 5.627533210072259 0.18185402991867508 0.5468059305345548
H 4.290473448699994 0.44843695647316895 -0.6433213809692176
H 4.89365211617621 1.8170500427471423 0.38254495003682976
H 3.960282467096734 0.18936910627082776 2.3975584412426723
H 1.5474225907803365 -1.2468308984028094 -0.48506145737237316
H 0.6036738956211363 -1.5424153417248376 1.001507213549129
H -0.4450477141781247 -0.11304423127017528 -1.5116297804077112
H -0.7754046566041676 -1.765593891792383 -0.9642343971243372
H -3.815292601430602 0.872420880251457 -1.9265581176711584
H -2.5917660479374076 -0.46374432813360617 -2.1184043016277037
H -2.014032481555449 1.2531301213086006 -1.8883190151363163
H -3.5236907691549098 0.8068585407197307 1.7650542847881592
H -4.188560291813064 1.7290489653351124 0.3634974316219796
H -4.6992958682054535 0.052913697958551054 0.6583912911485488
