18

C 3.8813546995461654 0.06837060061225977 -0.8300343191059735
C 2.5302359539674155 0.6476841827750873 -0.6248793999070867
C 1.6973108843254645 0.11626481517674993 0.22815275248940475
C 0.7200041364775435 -0.5753646195837823 0.7397066379065464
C -0.35306639365138204 -1.2381263833146303 1.0579123912533739
C -1.4837102980787293 -0.4973313981599078 1.672380183709266
C -2.4631707131419938 -0.16186313045795772 0.6202916494663665
C -2.527267424805333 0.4493067270820982 -0.6178116572138161
C -3.783029430698369 -0.09130512577400683 -0.040373735217838824
H 4.359549407710133 -0.24410369861985595 0.1305576240729959
H 3.863640458580049 -0.7754277370631285 -1.5727529004370007
H 4.566634054612257 0.8308700858954873 -1.2651877283070108
H 2.270285059000523 1.5349210042734267 -1.2197540403222553
H -0.478861866531117 -2.2987955651874237 0.9044840327184477
H -1.967461760954398 -1.1551833204042166 2.3986736765740053
H -2.06678383525979 0.960246106464838 -1.4500381286045863
H -4.551863540483417 0.6302785838511221 0.3303857406837122
H -4.21379939061546 -1.0175510661068483 -0.4617127797584012
