21

C 4.231606804518796 -0.8544110302388556 -0.33574020321110937
C 3.0493486156963305 -0.7131714024620697 -1.2057179988774298
C 1.9124603549937924 -1.0365912985226464 -0.6607369963669015
C 0.7893053891396751 -1.2743960118735418 -0.003987047920635503
C 0.20321213482999514 -0.1391462400059102 0.6919829694481285
C -0.8433639290193158 0.4945412723729375 -0.10730276078908642
C -2.102269070869716 0.2585582408743904 0.1616679862546958
C -3.3599248167660667 0.6813483456905208 -0.3813387379706235
C -4.078928410819241 -0.014340083649680166 0.46364042725956295
C -2.86693102492488 -0.5355246739688898 1.127132512592355
H 4.108275647556964 -0.146535823802292 0.5121482060780636
H 4.300005401663142 -1.9053398788052736 0.02090833895541317
H 5.156758927057045 -0.5381535451248737 -0.8695707520998772
H 2.99111620462151 -0.38600429029483285 -2.2067979586797444
H 0.47494601516545093 -2.277961338584023 -0.0815051810043404
H 0.9053995230419405 0.53339048698017 1.1780601075000463
H -0.5536783695386827 1.1569565176299947 -0.918758873665233
H -3.658003611254102 1.3397327840634397 -1.198036703956907
H -5.143189798551655 -0.18377502052018738 0.6539593562366636
H -2.722769540008974 -0.19346294424999788 2.177469359014641
H -2.7933764465388915 -1.6341214149535215 0.9825239512004487
