33

C 6.136367484562334 1.4895285066887558 -0.6248273439467469
C 5.03618581588852 0.9837782957680685 -1.433575266458453
C 4.463970413732361 -0.11726319531688416 -0.9896485533789042
C 3.885375534952729 -1.1542132674954084 -0.4147970562049629
C 2.8448636066822157 -0.8547654587238896 0.5178640116712979
C 1.6259062627542091 -0.5580425816122104 0.14330783588907434
C 0.624047371218526 -0.266681565910947 1.1236846421156763
C -0.37123274997752714 -1.1237228550817215 1.1993443741824998
C -1.3769298699181194 -1.9722249779359926 1.1221131576160803
C -2.4360631235262864 -1.62851029648346 0.18202023377255114
C -2.5888165928335916 -0.14559570811716246 0.10459733163988941
C -3.675949489373322 0.2516611291086811 -0.8583390704922558
C -3.7509054327803755 1.7668822996880515 -0.8644113756206913
C -5.00402283834754 -0.34480506450131104 -0.4433586092333932
H 5.8853106549293495 1.479476090186946 0.4698205099465335
H 6.376454386016465 2.530958249676653 -0.9307762359399053
H 7.0269157441366845 0.811776385668655 -0.7760627277146117
H 4.6073492674352945 1.3464470161930098 -2.324147076734806
H 4.281387656397573 -2.0780538090475815 -0.730090902917024
H 3.11721905388488 -0.8847985586182819 1.5851697570183636
H 1.406469270215994 -0.5413181069802535 -0.9196091524382823
H 0.5427564808766102 0.5313781303103916 1.808004091392869
H -1.2701281574346683 -2.800561148459957 1.7660020190975374
H -2.236197668014296 -2.1099301747753483 -0.7851953486930288
H -2.868088173655235 0.21130497154017117 1.131083810135089
H -1.664431015917259 0.3929471344839717 -0.1851495011157476
H -3.4296709143016435 -0.09464525517234387 -1.8653243413140235
H -4.755006744965691 2.0685658907498987 -1.1898098884575425
H -2.938063860529373 2.1179362285448216 -1.5441336891815753
H -3.502420002834125 2.116357819746435 0.15159649123240312
H -5.810920446286951 0.29431435541174444 -0.8538232254790215
H -5.091369948212372 -1.3941387310915672 -0.7707321456528532
H -5.09036197477612 -0.3240417484417467 0.660470841804457
