16

C -2.465050104423895 0.3296594597957925 -0.035547664655162466
C -1.316567266358249 -0.4302590844168665 -0.6275593834443736
C -0.072599866148381 -0.11652184427093151 -0.32267302512664137
C 1.118438851519997 -0.8192345491561052 -0.8655783240136439
C 2.1585023921613113 -0.4982330482169297 0.1966351379941381
C 1.6412509614438082 0.7168071771047122 0.8602453754704069
C 0.3814938269148772 0.9383297912912887 0.5711795684598912
H -3.350065371908358 -0.32758048783357935 0.014380192595598992
H -2.1552608614283444 0.6765240526454804 0.9707334296966944
H -2.6252850513301245 1.2063636879464308 -0.7143601966352993
H -1.5577410820015398 -1.229563475845676 -1.3012652494615706
H 0.9642241479785353 -1.9072604356390495 -0.9443105323619216
H 3.123264478721256 -0.29309492751639876 -0.2708350411252729
H 2.1775439635417895 -1.363642845493549 0.8898857137957955
H 2.229378307426868 1.351216376065315 1.5086887273323712
H -0.25152732610953427 1.7664901535400306 0.9247856798281554
