37

C -2.1212432088900868 4.8851064199386665 -0.03867908795888024
C -0.7388182952541589 4.698266676178571 -0.4522995262457031
C -0.3838017766344973 3.467814150159433 -0.7419312920973883
C -0.103036194472224 2.1882014982867775 -0.8980425469376678
C 0.329375217667303 1.474556778380905 0.2921069090810689
C -0.12305161292610271 0.040545628834703196 0.14238945059587055
C 0.8625462507089628 -1.0407782565242332 0.336159240634131
C 1.9985878814721223 -0.6209171044773015 1.1761019337524234
C 3.2285125315809777 -0.9669858374436181 0.8438058267793697
C 3.4707372316672993 -1.7776016600562798 -0.3730748598851986
C 4.3887104828708585 -0.5539245456985137 1.6772666195151384
C -1.3648332552437903 -0.2365169788709455 -0.15334663101768442
C -1.9146276312652788 -1.5658181240014022 -0.32227092889775993
C -1.3916883654627579 -2.76469707763606 -0.23915529724094736
C -2.3848714094994583 -3.809525027887528 -0.5015961190855348
C -3.5335862650499568 -3.2324619276463946 -0.7489222436587811
C -3.367761123366743 -1.7842592484000641 -0.6650060165880758
H -2.308719827738874 5.818988284831949 0.5226255743645489
H -2.5014239473571633 4.054987968904295 0.6082010305908223
H -2.7829200849888833 4.907639058559535 -0.9466738302510376
H 0.048455943116266345 5.3904698051713 -0.5625707805620692
H -0.23792937500694672 1.8579778199322141 -1.8915359558170426
H -0.16044846376616342 1.8312597922551026 1.2197769956950353
H 1.2284497111234975 -1.3422833621823456 -0.6658357332309438
H 1.831446408987301 -0.03458069385608526 2.0576556299357547
H 3.210013422274198 -1.1628935129714775 -1.269835895132476
H 4.514986079240481 -2.088424329157123 -0.4815053116908218
H 2.8208142807328502 -2.7006599238128084 -0.37435910688571966
H 4.65253311113274 -1.380894490597879 2.3990882193512495
H 5.304875725903591 -0.4272577241456004 1.0428096309909185
H 4.198187765145992 0.3832349533069832 2.236936824319925
H -2.0182920911912454 0.6543172009047659 -0.276344505565603
H -0.3843594739047497 -3.002858432107143 -0.013837166873758019
H -2.225286679471095 -4.879804844816434 -0.4984088470877699
H -4.48958225619468 -3.70833570797975 -0.9848566067668597
H -3.610790387671741 -1.25574272036296 -1.623029960691822
H -3.941160318268218 -1.3161445050138958 0.16819436456399203
