22

C 3.1826681295623827 -0.6042369429922189 0.3400665185599182
C 2.326395485857478 0.5573723047675736 0.5279970371828391
C 1.3921911519602008 0.7345430041890585 -0.382710372826771
C 0.45387349929709486 0.7974806410239982 -1.3018449267554393
C -0.7633743211407289 0.06370723090589833 -0.9801712399758866
C -0.5402311314854471 -1.293359205756449 -0.39812889018169806
C -1.5544436323834658 0.9274918935144139 0.01158678799640402
C -2.8333844617690507 0.28534354584823474 0.4248021105023494
H 4.040165127700287 -0.284909970395224 -0.32269982107061124
H 3.688170245161382 -0.8763097396171442 1.3121749224596138
H 2.68235177093749 -1.5058687100689803 -0.021289496241400384
H 2.3237596684051494 1.2955150498868102 1.2830960685055528
H 0.7186659439807259 1.3709705448681648 -2.143147095335187
H -1.3955077014598267 -0.07676220974523579 -1.9019898117404368
H 0.3141371285948707 -1.2949084420016297 0.3058475990162578
H -0.4626716672728341 -2.0843613185480545 -1.1616262428824626
H -1.443482681565936 -1.528382120517884 0.23647315093854196
H -1.7533017339507682 1.9205053854910425 -0.4583491420629231
H -0.8639203286661434 1.144507683204591 0.8683029818831738
H -2.7107318228643273 -0.2764582664749416 1.3906533767567733
H -3.2130214477425825 -0.35938881063748246 -0.38624300149589025
H -3.5883072211558584 1.0875084530555887 0.6750303720787104
