25

C 4.766652877163243 0.5584736640953891 0.9196110457420287
C 4.579113904497137 -0.5670271600526177 0.012853304218270509
C 3.41654716204713 -0.63380079471885 -0.5907172028032226
C 2.1804788349136395 -0.6687618947926686 -1.06473041042322
C 1.2302022662281515 -1.360731463997584 -0.2731234312247342
C 0.1686019256755977 -0.6606019318322515 0.0914566620592489
C -0.8971979117313769 0.07641177909427972 0.32264654221483624
C -1.9454860936330127 0.009780183845009551 -0.6890017912853071
C -2.930883445720872 -1.0286064502575134 -0.29484896530043186
C -4.086730741678955 -0.5038360633670046 0.03588676156944701
C -4.04693978697097 0.9568282709906305 -0.08714600405386853
C -2.763896001683504 1.263758386694465 -0.8129449869920027
H 5.831791336294548 0.533940368330079 1.280005367955994
H 4.675761274163513 1.5319208522560788 0.36801904301064736
H 4.0577308339279625 0.5427808588574162 1.773901817848009
H 5.232071766552342 -1.354944392222858 -0.2457491691164592
H 2.0879458520774272 -0.16172802750924142 -1.983716270023293
H 1.2075463868334912 -2.354160204606508 0.08901016563330354
H -0.8418578594812918 0.6224634960959401 1.222705780840636
H -2.7116928528473836 -2.0853490857504613 -0.28529802426298867
H -4.975799704161695 -1.077978908015679 0.3640009229159496
H -4.940741338091098 1.3024404534139538 -0.678406082718206
H -4.081225752742982 1.4450080393266216 0.9211311815716242
H -2.272030311413987 2.1458767586701497 -0.36320000951074655
H -2.93996262021782 1.4678432654534594 -1.8771376014011596
