24

C -3.3411970890249556 1.7293178245729217 0.11605804776492476
C -3.9111773577512223 0.38213935690094575 0.013667102362886112
C -3.1033375205809017 -0.5718637038779387 -0.35967346439009484
C -2.1856558138183386 -1.4596422390848802 -0.6589638735702343
C -1.4799841007479975 -2.028448010183573 0.46123719953109443
C -0.1783036340652774 -2.193233134450014 0.39791455459744873
C 0.5000874212716375 -1.781548991844995 -0.8331666063346268
C 1.639432994341256 -1.1243046867503157 -0.6682190295307131
C 2.712037028442083 -0.5205278888520096 -0.25648700961754406
C 2.65913838197595 0.8875946302611178 0.16166124815169736
C 3.9539576723762493 1.3418817075646854 0.7733880842883231
H -4.086545895818814 2.541391289396768 0.11586725744622157
H -2.6035133560700774 1.8609640442671584 -0.7201977744273743
H -2.7170881487802845 1.7560463789112108 1.0561053475333475
H -4.902325492655372 0.04886707088806823 0.20111149075674825
H -2.0809709707810686 -1.642788482742743 -1.6898993290382565
H -1.974711828973041 -2.339528972700675 1.3851757913100577
H 0.37913474051776463 -2.6218085679692194 1.232808777199079
H 3.626920537346794 -1.0634206939605941 -0.22365073989317866
H 2.4820711036277694 1.5101709088303095 -0.7586916441540115
H 1.7886966456503102 1.062393585794137 0.8487422419262418
H 4.64780106899914 0.4659569981325089 0.7788621630940974
H 3.75579732159759 1.5746305184284644 1.8423568839500388
H 4.4197362929136 2.18576105846751 0.24334942647286992
