18

C 2.9875547465116834 -0.21931893285352097 0.32157743637966724
C 1.6180986560563981 0.3595507619932717 0.5237125684358902
C 0.5200016941055654 -0.6723915200435006 0.4680640629878813
C -0.5688081502464397 -0.22823147327630003 -0.4733905341138781
C -1.2510610907046034 0.9903909269424012 -0.040561881245668056
C -2.53024045169629 0.7561229418002111 0.10547412884049896
C -2.7652387816174993 -0.6380765121513184 -0.22463749723974497
C -1.6413142110615924 -1.2301993985039907 -0.5637461439591543
H 2.997129653073375 -1.2761392160658764 0.05601876156827027
H 3.6257882397709618 -0.09875233054940634 1.2432123022280561
H 3.5627166982019984 0.3222368654491511 -0.4797860714161425
H 1.451513933816163 1.0965365146209534 -0.29878711736662
H 1.563877330202899 0.841534739259394 1.520587830610675
H -0.17723843711634107 -0.03426720802598363 -1.5005808553640094
H -0.7973806681450817 1.967786760039044 0.1438962527163858
H -3.3063602966885957 1.4889527355984955 0.42524347286235203
H -3.736931932748696 -1.1429331278722494 -0.20008790740531937
H -1.552106931713899 -2.2828025263607694 -0.8563144260033274
