22

C 2.923088983529312 -0.28073228949729623 0.10565827398587527
C 1.482264158805044 -0.536261322966578 0.5030780868815196
C 0.6084132536717552 0.28269751512260594 -0.3220101091405693
C -0.8456542421234979 0.20852618098441533 -0.1221001080349226
C -1.2953984187339678 0.5842202176650697 1.237257041122781
C -1.3205443076687453 -1.1993124012924343 -0.428043561825225
C -1.511256097389207 1.1209240554387006 -1.162888223275413
H 2.978772224970824 0.7654133670381847 -0.25292535638098657
H 3.6139177316440247 -0.4538000004605797 0.9544025898626453
H 3.1833098942947013 -0.9226464678558608 -0.7680292949718963
H 1.4278745692155141 -0.33344715290684634 1.6006774508994799
H 1.29488176005063 -1.619384121666486 0.36705534985360344
H 0.9869084249449488 0.759628989394567 -1.1987095487562769
H -1.6735233966432292 -0.2874875204553417 1.8361209623355035
H -2.1489468529794133 1.2892502491701676 1.1784878029211598
H -0.5141895401864974 1.0566053996156755 1.870355213308509
H -2.4252011053767073 -1.2393832233926454 -0.3940846490462611
H -0.8233578985182504 -1.8747804933330403 0.28549826687361113
H -0.9130367119154176 -1.4492605524022353 -1.4333877684490053
H -2.3929776020745397 1.623963139389879 -0.7227028687827741
H -1.813659168626016 0.575796129111858 -2.0537676909342664
H -0.8216856588912718 1.9294703032982192 -1.4839236506325386
