21

C -3.6302550618608684 -0.9748258251437351 -0.2637474057121238
C -2.59787109452168 -1.0986554782815983 0.833463356516673
C -1.2355359743839316 -0.7664924345758815 0.3046775341343474
C -0.4700102648127311 0.020149396515255946 1.0207116773687221
C 0.8546403040818707 0.3466260717250396 0.5124516147090022
C 1.3261801475882262 -0.1830136788234453 -0.677788589669445
C 2.5742426091430137 0.10437402112155095 -1.1882599463879195
C 3.399291432861128 0.96837785783359 -0.47238380226362947
C 2.970069991658489 1.51224998049398 0.707561699035483
C 1.719797966657107 1.2004857423773876 1.1816334508834485
H -3.7333767945210163 -1.9564080251923717 -0.8081257952426489
H -4.598155848603461 -0.7241049139636796 0.20691849953384295
H -3.3559769326306017 -0.16044365083800596 -0.9559728713006063
H -2.610555310815721 -2.1630976751084945 1.1592634382682625
H -2.8802431994846183 -0.393482601240075 1.6290923423514885
H -0.7571384541297598 0.44577171452721537 1.969082201937111
H 0.7031977940432367 -0.8558226899965798 -1.2502401819812343
H 2.9094733717811017 -0.32790316025122657 -2.1215447649403436
H 4.3773778028746095 1.1945800574384062 -0.8709090353237523
H 3.6539538754141567 2.180516330531907 1.2260865687930487
H 1.3808936396626825 1.6311189608509153 2.1151674738888664
