25

C 3.460433145625206 -0.18507625560340296 -1.0174107171056397
C 2.3865720921664484 -0.5526514350850482 -0.008247831802797638
C 1.0528852980417995 0.0021097397704260765 -0.46528128943604075
C 0.028558750045060474 -0.3900155334390952 0.567557805849849
C -1.3522076351290289 0.09115721341644506 0.25202480122924076
C -1.8808363766111431 -0.43918967733634706 -1.0534146221441452
C -1.4108327256895257 1.6042358226392557 0.18583099243316004
C -2.26713054206117 -0.4220473432956641 1.3557278484849313
H 4.466644185073888 -0.3899598121023984 -0.6181695518516891
H 3.404568876773611 0.9322948636582197 -1.13124377804053
H 3.248551997884135 -0.7080406736282925 -1.9678216320844728
H 2.703211952684537 -0.13875706123358922 0.9728251074391459
H 2.2585620287504 -1.6468246705309622 0.0856129923746226
H 1.0905360563870126 1.114805433457623 -0.5248934044585077
H 0.025076858901803046 -1.4731867516977117 0.7173668557209681
H 0.33627959279432246 0.07339746494087901 1.5252875374232406
H -1.083824486096068 -0.8939308138934495 -1.67342401615021
H -2.334285349154336 0.3652457511558719 -1.6911901784223142
H -2.6901157548368166 -1.2021341793883606 -0.898741707832625
H -1.3528357046297381 1.966765142861013 -0.8650618924479132
H -0.4939191128506863 1.9830925264832961 0.6956538775648654
H -2.3422261364926706 1.9977983865887048 0.6086322598138747
H -1.7137022073185724 -0.21216634713789267 2.3163400125424833
H -2.2918403973664905 -1.529273545505052 1.2791320520199947
H -3.2481244068919737 0.052351754905535126 1.352908478880476
