22

C 2.527386516653491 -0.05056893588471745 0.055362279536799064
C 1.6433926846026177 -0.6272525938933566 1.130118200500722
C 0.29902643319746897 0.06569825270219588 1.1961480775171982
C -0.3863303420564833 -0.09486597909887921 -0.11723242708400569
C -0.5773091560534668 -1.5897596229219186 -0.40042499281183724
C -1.7571266911456258 0.5254703549059724 -0.1667384948590209
C -1.7710447546955792 1.9932755332281256 0.08830991523341583
H 2.336651212404461 1.0452131830673412 0.022383761590801996
H 3.610270695109003 -0.15467163703569176 0.3267756059242655
H 2.3903510754101394 -0.536769677241341 -0.93221321692503
H 2.2082006779991015 -0.5167320836504737 2.0948852771174087
H 1.547617715032777 -1.7200280367547303 0.9725488620964491
H -0.2960162532952196 -0.4875082664627569 1.969486835176718
H 0.25301271722410407 0.27880474046674286 -0.9417207085926356
H -1.3115772214525612 -1.6493059260731016 -1.2270675955070756
H 0.4046641241324046 -1.9731875385887805 -0.7006036560325646
H -1.0043697573962613 -2.062040849260467 0.4936206829788396
H -2.1351569091000866 0.36500004378773154 -1.215254490363937
H -2.476439865906061 0.0053015968180877004 0.4856461381178906
H -0.9684351033728701 2.519039821296778 -0.45477322761128225
H -2.734719335334663 2.402552538674395 -0.33191312343563056
H -1.8020484619564172 2.2623350819190353 1.1680468849518337
