17

C 2.7926641931329548 -0.04125802821386777 -0.09463843623996795
C 1.583960981763056 -0.44259946957144725 0.7034978132928406
C 0.3166916338895955 -0.18881132368498046 -0.031196288916979606
C -0.8091357406227827 -0.634958399206961 0.51411750598027
C -2.0743494016067703 -0.37192901777605963 -0.23656044054761108
C -2.096125805612867 1.13265562061925 -0.5066241450658031
H 2.5433259319063275 0.28303946404441505 -1.1298097786589831
H 3.508100292514964 -0.8866510492743465 -0.17638561246089876
H 3.2830785842633476 0.7967787758745741 0.44720920048429574
H 1.662851733814641 -1.5199720423462146 0.9547329064924627
H 1.5063737733588873 0.11838584486581373 1.6723325149922765
H -0.8709584908039044 -1.166043442587862 1.447579063337846
H -2.969624912938662 -0.6035226977542354 0.3753107935790242
H -2.090554400842841 -0.9479117531290739 -1.169201232398252
H -3.110243391282605 1.4430273385478023 -0.7935332619889268
H -1.3339131751467102 1.3977532225606695 -1.2601664024912655
H -1.8421418057867383 1.6320169570325198 0.46277544603735893
