14

C -1.810537372686094 0.4597060082679154 0.32326158972201946
C -0.8002793517145026 -0.658359638318782 0.18485578592990928
C 0.41360484288172167 -0.2682330483664148 -0.579881570928486
C 1.3239872546370792 0.8038212926414032 -0.20007633384553253
C 1.7393724905075785 -0.6352009891639245 0.0910952873495712
H -2.3067401192471184 0.6124841963673281 -0.6572066308355257
H -1.381735811642563 1.3876337940425847 0.7275476873029887
H -2.5949557558576246 0.09437435736982 1.0135946388773123
H -1.3208467937521207 -1.4677469218973846 -0.39479148532170216
H -0.5411575882992475 -1.0354669781116195 1.1993966329483647
H 1.9238175981633896 1.2630329280772983 -1.0190648599114351
H 1.1207753119240293 1.4625668329308978 0.677667132701161
H 1.7365417497508402 -0.9066866929532189 1.1563248913941513
H 2.4981535453346266 -1.1119251408859443 -0.5590207228294889
