22

C 3.3630959183198557 0.562768415497845 -0.21155606656411224
C 2.216067641196283 -0.38821730179556946 -0.15390756183477874
C 0.9145020094382719 0.3131106360928881 0.20625529694669312
C -0.21982040757695478 -0.6507346728795042 0.25943582500955176
C -1.4879506288320041 0.07103528130579245 0.6167435990554918
C -2.607032350851279 -0.9645601253487914 0.6552292037255187
C -1.871122853883652 1.115913996345771 -0.38903877172039353
H 3.9161039115292904 0.5166400513136218 0.7307053570786021
H 4.058644381115054 0.20230680008664842 -1.008130781571312
H 3.0552918300757512 1.5783831657221352 -0.5188307589104876
H 2.058809715043697 -0.9564304354759864 -1.0976442695949338
H 2.359148190710938 -1.1773068688039907 0.6355102533559918
H 0.7295673944861208 1.2039363018832052 -0.4067765641609822
H -0.3813042171837244 -1.2290955830160963 -0.6531871957721915
H -0.013136071612854617 -1.3678970344570405 1.0938880066093453
H -1.403049293826915 0.5843342351045895 1.6036952875308061
H -2.492254974553793 -1.6899638866759414 -0.15114025800216147
H -3.611861846919662 -0.47704131949275147 0.5351022594862673
H -2.5096342179094364 -1.4941173332641784 1.6106860086524522
H -1.9293361234717907 0.7412129668097028 -1.421589073446739
H -1.2387455834649037 2.040324145658779 -0.3054952605194974
H -2.90598242182827 1.4653985653888928 -0.10297606075193844
