15

C 1.8568175176065504 0.6017488385705053 -0.4444099810331731
C 1.598500353192302 -0.853028587671542 -0.19775805779525893
C 0.2435142313197689 -1.1562825894804833 0.27471213316659204
C -0.8120923274632394 -0.37512236219153905 0.07879325552558879
C -2.302921296066039 -0.3825842645929814 0.4178085381458786
C -1.6702764723682972 0.7179492973643481 -0.3343216851457991
H 2.95702559052756 0.806110935684644 -0.34679998624671854
H 1.311960495551524 1.2220925329467565 0.2825529184046812
H 1.6012637569071884 0.8832996159364372 -1.4849071630816355
H 1.8963868907302004 -1.448204286510027 -1.0952351588636748
H 2.311665761037645 -1.1718470171613677 0.6159429660401677
H -2.5600314316752346 -0.2576468887651504 1.4858943657631776
H -2.892536976405535 -1.1203727433923953 -0.16529987244663738
H -1.9057160392500778 0.8132720618111516 -1.428635621238363
H -1.6335600536442576 1.7206154574515808 0.15317673157113404
