16

C 1.9575274281463981 0.11414548859040444 -0.11668608400028634
C 0.671914280737268 -0.6798191532554484 -0.09577081970442843
C -0.40591249990005235 0.012602034840928374 0.7057744304750581
C -0.6850837402990321 1.3607998183645895 0.08735292890220663
C -1.6246707517597974 -0.8756692464610754 0.6465550099445243
H 1.845029262927025 1.0641510956741844 -0.6865585049070212
H 2.330050923128611 0.3294510494985724 0.9089525221783805
H 2.6948807240608685 -0.5146634629508618 -0.6877236261330516
H 0.904962890075549 -1.6626470694190438 0.3665218613614113
H 0.33001135715506447 -0.7776063062531777 -1.1472426480446285
H -0.9067421973446592 1.2408917359391556 -0.99239575611441
H -1.5507178115147162 1.791538736398628 0.6426101774646231
H 0.19513522974255537 2.0038631176373705 0.17074177096054122
H -1.4986681769821333 -1.644395726869504 1.4378739790140398
H -2.5751330422286642 -0.3164003448508084 0.7243993508730167
H -1.682583875944234 -1.4462417668838854 -0.3189801614102905
