19

C 3.202803628196384 0.8136616194244032 0.6181292428222659
C 2.3277285768475187 0.12833278497338235 -0.4121222033010854
C 0.9440520614432626 0.12927480536520455 0.12685002734498962
C 0.062355186287306394 -0.8295216740483765 -0.08576378007237163
C -1.2779366164593948 -0.6484220385363586 0.5407415219403735
C -2.2825641975548314 -1.4401482782472033 -0.1666119989384675
C -3.1342738122897953 -0.5990657236038922 -0.7031949841006422
C -2.764882654490839 0.7839357348630159 -0.3975462260711547
C -1.6810034165465695 0.7679312728458523 0.32929785444544823
H 2.7069293348358294 1.7927011302617515 0.8421210943756039
H 4.234984729224619 0.9242965000710177 0.2678008706640178
H 3.1126727935908085 0.20288339730850458 1.551419761060397
H 2.6716558315655616 -0.9161505908873638 -0.54644729709248
H 2.3065296049030475 0.6799890436181231 -1.3777357765491622
H 0.3261302406280003 -1.6959988210604757 -0.690604740877375
H -2.3129941798702807 -2.5155998554244 -0.2319125419662369
H -3.9880010734251385 -0.877253660927043 -1.2878501178386812
H -3.2916458228258625 1.665054317149132 -0.7143449291794562
H -1.162540214059626 1.6341000368547194 0.7134356610835507
