26

C 4.285313581995339 0.0737315375870997 0.31970218235298775
C 3.250452666135894 1.1940800464030359 0.3870469590551081
C 1.9127226094163554 0.6459105604485513 0.1478120915215117
C 1.7472293154923284 -0.36432903674629014 -0.6591832471339248
C 0.4127137339964984 -0.88975433487986 -0.8801672990588743
C -0.6154390532435668 -0.3490158619550288 -0.2704705092795299
C -1.9580803793575519 -0.8977905527217751 -0.509411062396833
C -2.5263173386583544 -1.6170384114535412 0.676175253180131
C -2.8618909279814964 0.17516891129094597 -1.0469250131438474
C -3.00530929505535 1.333771909449063 -0.10298913504944184
H 4.640389330474342 -0.06355846739682736 -0.718836790704729
H 3.7884796444462236 -0.8938202306230002 0.6149720995884801
H 5.110341923005318 0.33302546638254243 1.0235567200881295
H 3.2438492511455874 1.6728656109762639 1.3928261367130514
H 3.495153520069447 1.9733956634653218 -0.37761263102466863
H 2.5725870168035003 -0.8121828430992747 -1.1600080388848955
H 0.23707864773014342 -1.7411952732825344 -1.554526682383184
H -0.4694944104394021 0.4797736645344676 0.38998860945808567
H -1.6853399111378506 -2.187388146727944 1.151180918635678
H -3.257220041530988 -2.350333440226964 0.3125142894444117
H -2.9581711642739474 -0.9208537755061096 1.4364548840239382
H -3.845406486868167 -0.25020549773981066 -1.3673118855277275
H -2.3870810822852233 0.5466571002086712 -1.9934557206768908
H -4.03825399895854 1.3476801825508933 0.3112653589294988
H -2.319992015082512 1.2607114754637576 0.7457691860449739
H -2.7683151358380718 2.3006937435983246 -0.6222692599054732
