34

C 5.833911148417976 0.34701594045994866 0.048713498920019103
C 4.878920109552722 0.5292311926518151 -1.1112213121476384
C 3.8950720832659025 1.588004719312172 -0.6868322567827765
C 2.811533210006601 1.2342715490901122 -0.008369823019023467
C 1.8994310526607499 0.529388538037677 0.6107423565678031
C 0.8308609860516972 -0.08278568927392616 -0.15298634976090456
C 0.857481028312314 -1.5330079428394676 -0.23571229394513046
C -0.24459769554958985 -2.238678800836429 -0.19762359475948404
C -1.5275913176948988 -1.560882338101928 -0.0696069432864732
C -2.4773432904501 -2.454197043255704 -0.053960742996891374
C -3.638727642098798 -2.0737272461097267 -0.4777170799778668
C -4.5331869855562195 -1.1146218568777806 0.12746606462592155
C -3.9935916681507018 0.08575397113365542 0.7611496720628566
C -2.8012333419002515 0.7494528270796051 0.14956974499196735
C -2.4846310359550228 1.9681360122093297 0.9995508418999648
C -1.623333395371399 -0.10290823417346501 0.018643631049828035
C -0.47879853611081763 0.5505940357898376 -0.025175869792586587
H 5.237508054979613 0.27981537630325437 0.9712221536655694
H 6.511855926741472 -0.5020652879874057 -0.09428485548279551
H 6.4283197083880355 1.2961008039358688 0.12882206136089647
H 5.409685761660453 0.8471509374277181 -2.0374723189231947
H 4.36549988947544 -0.41881051962295657 -1.3700227673012149
H 1.9724622334616921 0.4215216273441273 1.6744968550065633
H 1.8507643299975693 -2.003337929301987 -0.3317211730193404
H -0.14439543482758632 -3.317275769372536 -0.2648594327825997
H -3.9590854903487585 -2.536761247820315 -1.3889468495288608
H -5.390052963248879 -0.8753864915670708 -0.536022526006017
H -3.7320076671300875 -0.15637343916132057 1.8342122346783987
H -4.795164134552821 0.8564065808811415 0.842536627564973
H -3.1408845589767966 1.1668647690350589 -0.8446184244289451
H -3.39972689873028 2.3306803367086677 1.54140323100749
H -1.7421008165419627 1.7237411018743165 1.770356176678537
H -2.173502963052919 2.835368608186386 0.361575362563044
H -0.5033496867240859 1.6313209088419294 0.03733175200251901
