15

C -2.501699022114862 -0.15077332279612682 0.017265328711407013
C -1.0191548017047194 -0.34067648872005385 0.15454782673592624
C -0.23576471409609523 0.5714535316042589 -0.7721006652655239
C 1.2057406835709399 0.28409001393479055 -0.5375884337122983
C 2.4965881042378504 0.8611076371253794 -0.5247119961224377
C 2.397267326468714 -0.5447207529296776 -0.20405465635799927
H -2.7087720261329067 0.9388130912588879 0.10831260985363053
H -2.9848884861892007 -0.6766812130555061 0.8636758304076693
H -2.810628308587099 -0.5628409130798009 -0.9631678095751691
H -0.7890197332029724 -1.3899477361280967 -0.1928027878213909
H -0.6787206020161436 -0.21382035889346226 1.210561566669159
H -0.4829984741624887 1.6284143715549473 -0.533686995207122
H 3.0483947563880283 1.7760772658418311 -0.6770958079121953
H 2.398209684716508 -0.8871372883015411 0.8660968953877168
H 2.6654456128245614 -1.293357837415631 -0.9753261830304057
