18

C -2.5938446732236256 0.022851511459063514 0.3049419186422955
C -1.3428865689679705 -0.8429019549567753 0.3317768413326569
C -0.29414283571210725 -0.07114637409403911 1.093761150811462
C 0.7811401671985556 0.32123647026884405 0.10238336499004932
C 1.6203932770455065 1.4611690188595532 0.6004896464006293
C 1.6256488212953553 -0.891141356698548 -0.15487592982387366
H -3.0862473342618872 -0.042585873418575 1.278806794551373
H -2.2434153308653446 1.0620854377568545 0.14480859356976108
H -3.2279862315968337 -0.3551745042353096 -0.5106919263966995
H -1.0636749272799884 -0.9955365686327126 -0.7428960583960085
H -1.5317413021025974 -1.848757079788151 0.7383018840320533
H 0.297184186857251 0.6670231344236389 -0.8503495800255856
H 2.171178055296385 1.1401472957827767 1.5018589898800268
H 2.366545134145178 1.6883977667661076 -0.1941113984406006
H 1.0311324032230502 2.3597206032162883 0.7726577961825449
H 1.163082119832525 -1.8287667360935178 0.2706171426201981
H 2.5887950806879543 -0.7459628139721095 0.36201321240387924
H 1.738839958428577 -1.1006579766433795 -1.2432523150927008
