22

C 3.4483137052022057 -0.2463187791233086 1.1396465941969076
C 3.143556672431225 0.19323174003641674 -0.2804690852324767
C 1.6876328276179067 0.1583017711526796 -0.43886479216756846
C 0.48461381881895754 0.14406651467633474 -0.5569242263897006
C -0.972292452027881 0.1067067747761766 -0.7157947423324938
C -1.588516186516905 1.4771398957003072 -0.5404048659341579
C -1.556679411572706 -0.8290622128071633 0.3527654007636917
C -3.0590509208979455 -0.880492812224106 0.20475773348276569
H 4.499479170575272 -0.12851400608981373 1.398539246785128
H 2.847906468079285 0.40483932103285547 1.8042247822689403
H 3.0765207920405846 -1.2844260904609694 1.31104629604108
H 3.571031525185334 1.1856377981368762 -0.44829027015525597
H 3.5754460850655323 -0.5146639224529768 -1.0238048208661494
H -1.2351159978528654 -0.2887732058095618 -1.724690778974897
H -2.3958521326401208 1.64155103135714 -1.2656804953503695
H -2.016720536961533 1.5407666982996233 0.481203402514759
H -0.7749024451858864 2.226337796150784 -0.60264662198395
H -1.114477041187062 -1.8412853193702827 0.250319467129706
H -1.2445437534417394 -0.4463009820606101 1.3452449029291762
H -3.5652653312286544 -0.3047055813036274 1.009100477252319
H -3.4564731468537313 -1.8989254130889193 0.21911257570346943
H -3.3546117086510985 -0.4151110165246348 -0.7645933083465422
