22

C 2.640759489246742 -0.23605373898506862 0.283228426215411
C 1.2280520316344943 -0.5104230551026313 0.719648943407514
C 0.22647368362476764 0.1299272878691173 -0.22710630892495584
C 0.44082279325637364 1.6274792295028562 -0.25266114989226995
C -1.1625261137257377 -0.2661257382167494 -0.008350392291977038
C -1.5556260155049901 -1.6601134787354759 -0.11950926271703441
C -2.231727159976115 0.6857182229964085 -0.3361644977653914
H 3.1862361051347614 -1.1511348684891094 -0.03159759935448099
H 3.210289921196454 0.15557696030450688 1.1754564674535881
H 2.699042449972752 0.4668224394808468 -0.5698069772590391
H 1.0311654059951036 -0.12719861196042676 1.7514896970947018
H 1.0904091077648175 -1.607833231262284 0.7167381782690471
H 0.5369493373168663 -0.2286819141939465 -1.2546995791173066
H -0.3208321040790208 2.1731379253126124 0.33434581998928903
H 1.4262650765859193 1.9110853022757472 0.1969374749849492
H 0.471494933415093 2.024825576905275 -1.2934994323613112
H -2.091752475681988 -1.993270067357756 0.8140872467626882
H -0.7793335137271424 -2.400475852238979 -0.31430210535442027
H -2.306641601127428 -1.7651049972987507 -0.9559873453065784
H -2.3996764904588974 1.5016755647341387 0.38666181224890067
H -3.207382330179969 0.1255343443008149 -0.38394862086535336
H -2.1324625306829503 1.144632700158848 -1.3627858328255837
