11

C 1.2281153240623428 -0.01874524508422232 -0.23202617198185468
C 0.007697024121784133 -0.19029298704930547 0.6352478274236362
C -1.2065266681092224 0.17769778332059422 -0.2061080633964413
H 1.257672212340941 -0.9160964691303692 -0.9089502941124313
H 1.072595458709393 0.8610255861491132 -0.9192342932088775
H 2.153930382637086 0.14196037490770808 0.3165417839481604
H 0.06456927874502118 0.4129657742098493 1.5677336052205364
H -0.038842237579150986 -1.273167054764371 0.941934120023714
H -1.744455433956543 1.0021650634677108 0.28804313614584887
H -1.8800865347188773 -0.6917092943079894 -0.24795604200782387
H -0.914668806252774 0.49419646828128094 -1.2352256080544688
