14

C 1.3188052257224188 -0.732149342840692 0.21975961315544396
C 0.8675363212217081 0.6794863267554581 0.04033086187181873
C -0.6271942137827493 0.8400616467575492 -0.01629711689656276
C -1.3636388640264805 0.13719431158826803 -1.0888726803910398
C -1.5595074029039186 -0.18797470011377576 0.4210572688947078
H 0.712772404031352 -1.3123341259185406 0.9482068005394344
H 2.363994358700789 -0.7094209767728685 0.6474810911989927
H 1.4278786245102086 -1.2930763331898392 -0.7410384829124923
H 1.3379740964871247 1.351249333164277 0.7867665612449465
H 1.257496611394422 1.0409554979900606 -0.9558333843025946
H -0.9461937085506263 1.9130053946770353 0.13372073383134056
H -0.9062952333034342 -0.6714891350526662 -1.6826666653315023
H -1.3109231198002365 -1.1998632401468492 0.718387219900138
H -2.5727050997005105 0.14435534310248474 0.7730972682946521
