17

C -2.377969763204561 0.27023964123735655 0.16072937505732166
C -1.3563664820800858 -0.8372793620195756 0.0795439642635818
C 0.030444405652575193 -0.3187855103107912 -0.02663432574234349
C 0.986299227924873 -0.5724468724425213 0.8462270724330628
C 2.2254788957049256 0.09701615537688689 0.43215271416938644
C 1.8605124954556267 0.7855621460624459 -0.8172327957431662
C 0.5957203971353169 0.5338392149195432 -1.0627950837366893
H -2.0361781718538468 1.1468583678242328 0.7276638839988164
H -2.56810214629019 0.6104517111881803 -0.8855987348478156
H -3.310456673426789 -0.18371448579333183 0.5580015093866403
H -1.4809931099104425 -1.4565809553471132 0.989274862032901
H -1.6192397179116722 -1.4605677937647012 -0.80556137598231
H 0.8319165238198544 -1.202086189534871 1.743564415093377
H 3.0638534132508664 -0.6228191890686396 0.2569762594898381
H 2.541702785552392 0.8969957635679701 1.1436847260987664
H 2.555422014674506 1.3971856181544235 -1.4151646612517186
H 0.05795590550664025 0.916131739950531 -1.924831804719665
