16

C -2.4192166535491433 0.1941398186372436 -0.6866750251055498
C -1.3573323817745528 -0.5709354789354485 0.031956552104177895
C -0.033771656274998764 0.09286769935952582 0.03234880791835175
C 0.6362344797570428 1.2169960099897716 -0.40370054274812134
C 1.368353862761715 0.15835646889900784 0.3857660474803077
C 2.432861504729613 -0.5518724468316812 -0.40768887150755173
H -3.0525131530198264 0.8177803008216674 0.006580045184520616
H -3.0909965048061507 -0.5321594999858226 -1.1822126310091523
H -2.0094868596969366 0.937126160003963 -1.420908431823689
H -1.7327534842367216 -0.7268006067577871 1.0865556690617426
H -1.1973736201308625 -1.5940251938000063 -0.38365891394757645
H 0.5961646624487703 2.158992653945692 -0.9362584496495284
H 1.6688089706707228 0.4487882289628121 1.4245883423849128
H 2.4739109937792967 -1.6388491417077433 -0.2198650783934614
H 2.311861622777658 -0.3649679190553487 -1.5045355200302863
H 3.405248216564413 -0.04543705354583828 -0.14739615207436713
