16

C 1.3510622005485997 0.357954379035557 -0.8754749824709327
C 1.2239135148053732 0.05094289040197705 0.5972552922070499
C -0.24359028941496183 -0.24420707568285557 0.8772798299280131
C -1.1742471213680283 0.8208501171494338 0.5787736058598085
C -1.7681461871180697 0.15614938311432613 -0.3513954692184566
C -0.9184265276228952 -1.0123061767064836 -0.18790896397428442
H 1.6070638680173701 -0.5358523730031289 -1.4826820950885995
H 0.42012596605235614 0.8461933078943231 -1.1965030926842262
H 2.1752707854252296 1.1277117121946532 -0.9422964851393927
H 1.811548397270178 -0.8450852865195381 0.8851072545289613
H 1.5790229890055583 0.8994426636730157 1.2163361864084934
H -0.35578031973789664 -0.6787298684287608 1.9131337622010112
H -1.3869130435555255 1.8558323144954878 0.9461226222875389
H -2.619777885141228 0.35813778690445625 -1.0490220132699304
H -0.26277178164816 -1.2027095689531269 -1.0695448616238807
H -1.4383545655179468 -1.9543242055692827 0.1408194100488348
