13

C 1.3927271473593323 0.4522814811035037 0.3934526260512981
C 0.6870519487201434 -0.38152316109731893 -0.6426642503694032
C -0.8013430797603923 -0.2592911011282425 -0.6010687750534042
C -1.5528598208998847 -0.6266100670524587 0.6040958228647362
C -1.5022409936993615 0.6903444961053276 0.22366459320518675
H 2.0607377304861054 1.1941321940018388 -0.10289752009177325
H 2.0966921353670847 -0.20862022280813433 0.9794030596003306
H 0.7191370234730582 0.9850469214802438 1.0752877519271484
H 1.016109371469361 -0.10935558063995682 -1.6831493255566612
H 0.9457696207886441 -1.458316644417445 -0.5075777117673081
H -1.3073131620101057 -0.5689344123985047 -1.5560824180310575
H -1.904453516568775 -1.382156305342184 1.3031053396755816
H -1.8500144047252047 1.6730024021933296 0.5144308075453415
