17

C -2.128195019176328 -0.1331119531254278 0.6603665708893051
C -1.4340685938947362 0.304845877495543 -0.6309808671054534
C 0.026373919221609556 0.21381527604702108 -0.3616776228572554
C 0.8818114278831918 1.2039094374710078 -0.4206501529058257
C 2.2001459117964357 0.6903376580820616 -0.08795873872204962
C 2.143373755490269 -0.5973133643374657 0.1697415564868153
C 0.7400423762175422 -1.0125831429203003 0.015384680727277958
H -2.0517034126523908 -1.2436898359444075 0.7421111816927959
H -3.1592571775384926 0.23975745691629125 0.7157917485312298
H -1.530813374485197 0.26944572820574675 1.5074852914978694
H -1.759322880997683 1.327948662466019 -0.8451411776198194
H -1.6969620382139876 -0.4065204653859292 -1.453659398607877
H 0.6804027585046513 2.261345460384878 -0.6747994373314652
H 3.0943517339324456 1.3371286320719191 -0.0689798566676171
H 2.9418406000324286 -1.2491823239356348 0.4420206485435611
H 0.6208241176308684 -1.8258170993149927 -0.7411129740564396
H 0.431155896249377 -1.3803160041763405 1.0320585475049497
