17

C 2.206342949661066 0.14658389470138306 0.028299915284332833
C 1.0011605875034792 -0.711060882217407 0.29470740249122074
C -0.16763492480195363 -0.2525110812422623 -0.551707140387214
C -0.5113027174920054 1.1388555209479045 -0.24598224258281554
C -1.7418769752248109 1.1771947179691127 0.2259991290061109
C -2.265015160719216 -0.18080524724785235 0.2535293526086449
C -1.3663002663539 -1.0281154949862605 -0.19437383364733396
H 1.9421407091427108 1.2201970222809373 0.04624756853914886
H 2.6980553467346975 -0.09287399488229964 -0.933557191261413
H 2.9430986661564003 -0.05623580246104083 0.8358987147048279
H 1.2078763283534908 -1.7641548308614805 0.03037484848510184
H 0.7661732842772953 -0.6844971907998533 1.3704883839032724
H 0.13559506584843628 -0.38411227645476503 -1.6108979601857132
H 0.10739366633748726 2.0283746095425204 -0.3688244813002285
H -2.263955353430166 2.076005952903466 0.5374166294980544
H -3.246816751226195 -0.5107461779823065 0.5847026882341688
H -1.444934454766822 -2.1220987392097967 -0.30232178339016513
