15

C -1.597241563004148 -0.6118264764315159 -0.4103333423472521
C -1.4784333563554275 0.8066695753134935 0.10989085920592272
C -0.024980975980056462 1.0902003231361557 0.22736875534670573
C 0.9118257441253623 0.209968569107449 -0.08401548782393144
C 1.3322611315187753 -1.1420373561668766 -0.5721909709586718
C 2.3343076477872424 -0.14717446248116955 -0.20194901717979805
H -0.9602804676600908 -0.662744026234694 -1.3257578064906252
H -2.656547919803164 -0.8521137124660354 -0.647397616848751
H -1.2201198829394593 -1.339840271355076 0.334838270688714
H -1.934843755458037 0.9082928206721652 1.1173880304567423
H -1.8947027595341321 1.531072584860241 -0.6118813247231143
H 0.2859177207381102 2.0603398937753394 0.5837176152248054
H 1.0878361391104525 -1.9520341766917493 0.14800177187618535
H 2.904910998968854 0.41032950629426357 -0.9686346376518022
H 2.910091298485748 -0.309102791331997 0.7317132344597109
