18

C -2.81854497090564 -0.021448019861028456 0.18120054671287264
C -1.6310012061938604 0.5881540033998868 -0.5268970773535813
C -0.5520057269755245 -0.4036047900778358 -0.7467187203948052
C 0.6599692037257571 -0.24958331175652496 -0.2451537088253868
C 1.1747153251862286 0.8412091468879753 0.5731603786825592
C 2.4463268981275528 0.6234744776299908 0.8753783267119765
C 2.8317349163512295 -0.6243543248457943 0.26929464115298657
C 1.8076518393933747 -1.1580985012555314 -0.3927035103176728
H -3.731487669854192 0.3837711242961675 -0.2534996877272613
H -2.749747537102281 -1.116330518877273 0.05419520680418651
H -2.7390350462627935 0.16202041427196592 1.2816882377443504
H -1.2620439947844901 1.460494085519688 0.0470427179116461
H -1.9739714307342235 1.017819543058842 -1.5145700616593094
H -0.7559923933046142 -1.2898553188006734 -1.3390095268638869
H 0.5694102117080764 1.7049427094347311 0.8780879433174071
H 3.086970628061706 1.255840338028903 1.4656907519415316
H 3.8145711427352142 -1.0833649573162272 0.3312597360070762
H 1.8224798108283755 -2.0910860997371445 -0.9384461938446759
