25

C 4.227186672814244 0.23867771359467485 -0.0359145391646347
C 3.2934459043729905 -0.2954734553328892 -1.0816059604822483
C 1.9631778002258815 -0.5397119595048093 -0.41937102403203613
C 0.8844955979297758 0.07491172213917731 -0.8270303905883644
C -0.41263634300510393 -0.1363444337916967 -0.21255373524959925
C -0.5903114803724041 -1.0021302541834414 0.8443482710588125
C -1.863338801245189 -1.1558102648181077 1.3850566434121987
C -2.937661971846187 -0.45896492071468925 0.880626796865261
C -2.780218919754587 0.40931230056752604 -0.17341263444357782
C -3.9540235623655873 1.17292541189527 -0.7271520130059262
C -1.5275298935435329 0.5612714664424561 -0.7063400905453908
H 4.600089938456171 1.2694647090232178 -0.29664054576183446
H 3.7559422063205514 0.31174518489488623 0.9588355401632217
H 5.147055855330361 -0.3835275496339852 0.08318503648067833
H 3.2077651998706083 0.3230445175699986 -1.9733643719118399
H 3.6863140323406585 -1.2953646526449332 -1.3984788486993467
H 2.0123414052136286 -1.2488883522933099 0.39100719407460555
H 0.9593827391419966 0.7655838150369367 -1.6511642946093323
H 0.25499660536042174 -1.5492103311946526 1.2398287214524568
H -1.9605880158713753 -1.8530774158300236 2.223207293734991
H -3.92629080259415 -0.5773682868331461 1.2994454889905618
H -3.7114572303737896 1.6077802137369845 -1.6959306123283475
H -4.12052160808572 2.0090103250585702 -0.0060753226443764855
H -4.836639854253313 0.5086619791531152 -0.7277876197122223
H -1.3709754740662397 1.243482517662857 -1.543854683520874
