18

C -2.3874904277056195 -0.12257287173846967 0.9029658605823823
C -2.4798704852839384 -0.5045534113406591 -0.577161069905107
C -1.276612655273153 -1.197029356329687 -1.0309385694416329
C -0.11350238771934633 -0.6308808875764059 -0.8938112442787484
C 0.9966981215767275 0.05094661194069857 -0.843277721554812
C 1.931305152456672 0.9730835567767315 -1.4783267674451679
C 2.1556658577760524 0.49292543343611517 -0.26489532742122335
C 3.139377140850029 0.5332898096311124 0.8778445470507894
H -1.5541681314133082 0.5915035218277463 1.0318964956857666
H -2.176297218107809 -0.9944467821751699 1.5339436662231165
H -3.3771077097351205 0.3351489253283929 1.164954857108881
H -2.5196904832655345 0.48134331720901635 -1.128124060117301
H -3.416039801031773 -1.0257990646968969 -0.7727252761730686
H -1.3224096777080885 -2.155031843788278 -1.4727032656765162
H 2.2228167076725076 1.5901467256835544 -2.3178260376843096
H 2.9664998185566023 1.458850973019136 1.4523126541273024
H 3.0315268132505366 -0.38315133757735803 1.5056850002336981
H 4.179299365104096 0.5062266803673365 0.49133754741636565
