29

C 3.6480814952916543 0.3627648813336992 0.2830080610942631
C 3.178111730531615 -1.056032059391381 0.5242598324166634
C 1.7045539504479936 -1.124960081642903 0.6572496519541898
C 0.9978860286005722 -0.016994285649416005 0.5586534896228872
C -0.47011487095467946 -0.10205181759934868 0.6934688775242
C -1.0865071079120716 -1.1123741538675904 -0.1541171342398525
C -2.211820558302625 -0.9488370810500582 -0.8247298996823105
C -2.775900774743002 -2.0349656847604414 -1.6709188629395817
C -2.8703030597383585 0.34198875306798227 -0.6953360469664212
C -2.405500588703123 1.3242313418072995 0.040003923352503495
C -1.1580248791604526 1.2009229831699983 0.808735283352231
C -0.23682756159721294 2.3711057753082363 0.4888034904074023
H 4.757515129605492 0.38677070379783923 0.17761311363554425
H 3.401344553626656 1.0282599937731915 1.112134833138683
H 3.2314120504107073 0.7114275971314502 -0.6735026012374229
H 3.466039942690856 -1.7036624805222267 -0.3242403965160386
H 3.6960666753180793 -1.4812457732870616 1.419369202149727
H 1.2660941838541973 -2.099009052151412 0.8325105934845899
H 1.5047144706601727 0.9176560803622548 0.38330240340053184
H -0.5957480059097782 -2.07032438300121 -0.24878683113560532
H -2.080031878739367 -2.311283190361056 -2.4695773551286306
H -2.887654642752721 -2.943369562740079 -1.0163819927754971
H -3.7819732304053244 -1.7516535338212642 -2.001076680366828
H -3.814375205788491 0.48503117894680475 -1.255384195242596
H -2.976923622919065 2.257019973311404 0.07046327229294459
H -1.3992003816613467 1.3406909555346076 1.906604373767607
H 0.24547303794500366 2.2872100173526286 -0.48305374614658153
H -0.8474736504237212 3.3124297594070264 0.5424662500984575
H 0.5010867707284805 2.4292531455410518 1.3184590906848153
