19

C -3.597282213779103 0.06520929155476676 -0.3015675973276609
C -2.4363196359852153 0.9692006057435201 0.05720017709925265
C -1.2242322680314797 0.1367234478920018 0.18045128524618773
C -0.0419220562956106 0.6105016593445425 -0.05974202884058921
C 1.1475924993288094 -0.21862641838784858 0.06461648780871522
C 2.504852885646584 -0.2277261268835109 -0.05611881187022788
C 3.7718570803988385 0.48018484901713276 -0.36963355837193357
C 1.8590558690930763 -1.4896724011529368 0.35626229281648175
H -3.2052989707354596 -0.8523013011936961 -0.8305706894536152
H -4.3300118029267916 0.5683566219631979 -0.949508429247799
H -4.093633045830084 -0.25195832054313266 0.6288739854332468
H -2.5960085235511787 1.4621487626664296 1.0472382758330878
H -2.311588330703789 1.7414488290085948 -0.746498067384731
H -1.332486852556639 -0.8930904588151284 0.47894595608233287
H 4.335911917568338 0.6335483755244197 0.5488275715455179
H 3.542147019460709 1.4515856095151187 -0.8943173842770359
H 4.307257128402635 -0.14881879201680995 -1.1283054391131042
H 1.9578349281397127 -1.7166791443515867 1.4369382961572508
H 1.7422743723570016 -2.3200350888856436 -0.36849633283497707
