18

C 2.433731396029494 -0.0005996573808926752 0.26873560113609446
C 1.3607715568860692 -0.06806807797784016 -0.8142308520556898
C 0.1599031169276521 -0.7235874069348276 -0.18983053004613737
C -1.0008380931099368 -0.09340310675304014 -0.11909525123876342
C -2.1471165018998475 -0.7908009019724497 0.5071575794085522
C -1.1275258893519795 1.2766174134035446 -0.6600849196786445
H 1.9881855640436819 0.3311506126477428 1.227533020770286
H 2.8181485481083355 -1.0326739597554648 0.4385005793356321
H 3.2365028427878175 0.6516422249474167 -0.09751877354026918
H 1.6942135064413326 -0.7617500228589452 -1.62306097837912
H 1.0993315562376644 0.9234675906549282 -1.197858268000327
H 0.266805784854184 -1.7215261938680024 0.19989189583119757
H -3.1193484717782587 -0.3100182271138059 0.30431235048816785
H -2.178944653923873 -1.8431615003669886 0.1374250166765724
H -1.9687667334274934 -0.7573924230820068 1.6199025664049267
H -0.8448500450840439 1.26103896239453 -1.7306709025741487
H -2.1781985878751136 1.6407927032353693 -0.5288008792823066
H -0.4920048958659874 2.018271970780688 -0.12472723201796754
