17

C -2.707889903925014 0.8966417914236534 -0.19018387057096584
C -1.913373460127002 -0.34845603525388713 0.13389612813612864
C -0.4776561622171171 -0.09723880816909751 0.24987382169561365
C 0.40747795752476496 -0.6891953074972623 -0.5222820824899383
C 1.822920254479441 -0.41836057006854893 -0.3817823146392019
C 3.056762077094559 -0.6902287850222948 -0.8331217690717709
C 2.9519577908461208 0.2858572011812839 0.28177055984861
H -2.0637956130915938 1.793185299040778 -0.2842954383337327
H -3.259495251275661 0.7963444373855779 -1.1485489877009956
H -3.46444417425525 1.0577679608940527 0.6274692130168631
H -2.313697868618637 -0.83218157339637 1.0609820262786556
H -2.082121435132446 -1.0747777364150777 -0.6812191277001273
H -0.11741269709445933 0.597940863467182 0.9930558982205
H 0.04339439125385582 -1.3816939033469502 -1.2619803623247756
H 3.7399775401534767 -1.2042361538945214 -1.4936453811611965
H 3.241499663627202 -0.04421435661418549 1.2889751586424616
H 3.1358968907576497 1.3528456762856609 -0.00912957889918657
