14

C -2.1411916897017913 -0.13283310600701076 -0.22522511618348623
C -0.9128513860848336 -0.5344656951459059 0.5169002174608562
C 0.09227598262672831 0.5800014518737668 0.5486757374518071
C 1.2786845103837083 0.3595233017429287 0.007629140957524119
C 2.6091653046188896 0.8339994605172307 -0.32725660339801227
C 2.258377476623925 -0.4690343367060953 -0.6826581630042139
H -3.040554772275452 -0.5328162818209512 0.32069626623945074
H -2.2504888139485293 0.9716730356394577 -0.32716303799063856
H -2.129177366115394 -0.6207948411982689 -1.2402468859934894
H -1.15865841890261 -0.7242152884498939 1.6011339212774314
H -0.4418775368929215 -1.4686519366267023 0.15460250077186194
H -0.13317705757273296 1.5336512901148833 0.9951409014833194
H 3.381224267953005 1.5878319502827392 -0.34133828160917423
H 2.5882494992879463 -1.3838690042160033 -1.1545955742692806
