19

C 3.420925177953575 0.5386083481765732 -0.4359325566222914
C 2.1608518185569814 -0.2205101918986399 0.0009596208261520805
C 1.2209846998657807 0.6492691181467589 0.7000998970315876
C -0.04747668595984322 0.31473897054131766 0.6545978958597705
C -1.2831399628764566 -0.012800619878433847 0.42393276586489614
C -2.151548757107477 -0.9052674783108432 1.1800212218266404
C -3.3093724420041197 -0.48162110988153173 0.26631776794699197
C -2.2943056721377055 0.29530684842938537 -0.5674740225062397
H 4.021097447490831 -0.20136777889618315 -1.02680926856613
H 3.961982155658316 0.8767437238753443 0.4715311156593757
H 3.1126986124896243 1.358850068517398 -1.1005373211322569
H 1.7450826786709368 -0.6444034976717946 -0.9478598322566875
H 2.468801267077482 -1.1060808609610095 0.6077736397975683
H 1.409535898414915 1.5297494650104553 1.2514445966391439
H -1.8886197176775998 -1.9755346647739485 0.9810012870411037
H -3.7936869364104107 -1.3095059105609586 -0.2629496188548033
H -4.017271476810161 0.15625273597363276 0.821586773399006
H -2.1034300154809613 -0.20854605403766238 -1.5407749124992043
H -2.633108089713561 1.3461188881999304 -0.6523705764260841
