32

C 4.952914306795117 0.7121974490015328 0.9874420986908277
C 4.341190175864431 -0.21589675527225685 -0.055191054814739834
C 2.910297654313689 -0.3666177129881535 0.26211994978381503
C 1.9826055432217837 -0.010984237305029676 -0.5934274324287573
C 0.5441450321747255 -0.15478120973130624 -0.29247847168141805
C -0.4118935837894095 0.18587344474654047 -1.113620923253311
C -0.3088165599982591 0.7740184465468022 -2.4878132254288783
C -1.6815415959654756 -0.12067539499676944 -0.4279290174386917
C -2.883233360739096 0.08156489244288863 -0.9309702159152987
C -4.188971995641505 -0.2018523170939267 -0.3014225367744368
C -4.268803818416534 0.21085163382437444 1.1452403909174609
C -3.5067684455543775 -0.7362172482300428 2.0228334473741945
C -2.228015827710453 -1.1292057597517957 1.9203202148009084
C -1.3051019416030303 -0.6707365612653758 0.8693177228197403
C 0.016988641134429296 -0.6928044238649685 0.953915477926705
H 5.060228474645626 0.12490381566387636 1.9375630279830418
H 5.926882528542842 1.114325801502408 0.6627318891681849
H 4.2655602373392405 1.5695846080875677 1.1216497751087082
H 4.528724163426505 0.2500547977919981 -1.0353492743144654
H 4.872311857246728 -1.1898514822066748 0.06398518109010569
H 2.63141475305212 -0.7731457863406554 1.2068562641678036
H 2.300186723690716 0.4019080396852546 -1.5521655173236681
H 0.5730780963965239 1.4719537110566303 -2.438687549173349
H -0.1606429009588317 -0.015962656248757378 -3.259304145116778
H -1.190250661462583 1.3772814880719488 -2.72698863476605
H -2.8531093532156913 0.5069937970920343 -1.9246402401420444
H -4.403595958265732 -1.3093834719857742 -0.31971350024251954
H -5.013633852265464 0.3162542427096918 -0.8370041845175396
H -3.8806232747518976 1.2452656404948552 1.2354722770620918
H -5.333099022028481 0.12441388001626251 1.4465821787373792
H -1.8212205667304888 -1.817361428588347 2.6297664786086323
H 0.5327945312527854 -1.061969242862149 1.830909549092025
