32

C 4.422229677614671 -0.39432373047570946 1.8390858911546026
C 3.3017380284478763 -1.3788511989769252 1.3972278105922302
C 3.0151834881222186 -1.1837716450109106 -0.020024815319030338
C 2.1048178299075495 -0.8643834990895823 -0.8083889064971168
C 0.7223029425611177 -0.47600385900038694 -0.7801741407368856
C -0.1564587903518074 -0.2955769752090582 0.1527418365416646
C 0.07880216938071063 -0.4653090371186869 1.6180638486475243
C -1.4455441407681102 0.09405948047407833 -0.4054179691887917
C -2.5635852481787182 0.3549339138254796 0.2426599990494609
C -3.9100136047827663 0.752928395017294 -0.20151942850132534
C -3.9774248569425867 1.6413530323530716 -1.381199429104793
C -2.9800632589716805 1.4324383464379502 -2.4215001037302804
C -2.2103436801928087 0.43114781597271523 -2.7504775645986017
C -1.2841312832496874 0.1421062943210433 -1.8381627186843768
C 0.07443638671357732 -0.181569534260317 -2.1599996727625643
H 4.557750634876972 -0.4651320128330754 2.919498287942808
H 4.124280727124172 0.6222177007829419 1.5220742563960143
H 5.3207463125419086 -0.688315558123601 1.2684049760492233
H 2.542568496976554 -1.3592330118680367 2.1322930469647043
H 3.8606346068311503 -2.3998282023233988 1.5135279458684205
H 4.035951509811049 -1.4157479037381064 -0.6134855909621358
H 2.487519509718074 -0.8852260817987989 -1.9175892391460736
H 0.278424319032722 -1.5096578317980147 1.9012453581924604
H 0.8956669390086658 0.18416936416849072 1.977664003826596
H -0.8064129684385493 -0.1426832034400816 2.209642717682641
H -2.501016694743397 0.25937183005634945 1.3162153436532527
H -4.39989452614388 1.275446583664134 0.645704269855319
H -4.489724802527324 -0.18110901881492517 -0.3625573517788837
H -3.9477501215793462 2.7123071389093893 -1.0825222410842883
H -4.997344028909048 1.508750208351558 -1.85071273855445
H -2.823167255818144 2.2801276672704334 -3.081962117947511
H 0.6698216829335112 0.5953645322745403 -2.6672364891905334
