19

C 2.517036216483395 -0.023946454816073468 -0.09145531110801478
C 1.0700875704167567 0.17435673660475975 0.34031435719026765
C 0.20129218525427298 -0.4293673135651384 -0.7176497792366457
C -1.2684161664495737 -0.30834986256462227 -0.42541726975016064
C -1.6650842569765592 -0.9836240365303144 0.8561349324244028
C -1.6681014174811055 1.1424403764739646 -0.477666579556461
H 2.6342228405347816 0.5302839019765171 -1.0464289520933185
H 2.70168343897217 -1.0962654220069397 -0.3211879209385186
H 3.187219868017219 0.36666091213739654 0.7036462807445412
H 0.967388264179476 -0.2604968451699855 1.3312023219205775
H 0.8939160411596604 1.2775611562532654 0.3991022850523553
H 0.4883985626121285 -1.5088913346478723 -0.8374438041317012
H 0.3929893706016227 0.11887159314361519 -1.6651371209585868
H -1.9374077135025873 -0.30774534672032305 1.6646459881519953
H -2.460125066087333 -1.7083166409408277 0.6486578005962641
H -0.7731066798487428 -1.5740956937951642 1.195327558541775
H -1.1398568450336855 1.771531031395037 0.2614398164253765
H -1.3971961440180514 1.5178596723149005 -1.4884059001690826
H -2.744940068833829 1.3015335704577629 -0.32967870310507735
