22

C 2.7958316808806396 0.45399936684589304 0.11188141352271809
C 2.121817479362405 -0.8725712636774282 0.4498606752713874
C 0.7986949829381066 -0.9468071464069807 -0.2876818444860345
C -0.0349057355568459 0.18912625777897624 0.15850402018615597
C -1.3801141456419015 0.2974012631077671 -0.44998655189819936
C -2.042617226849659 1.5382442794125137 0.16492100373093946
C -2.2580917939498524 -0.867232902986264 -0.12624286732196927
H 2.9259042972227425 1.07677969260843 1.0082558630233116
H 2.2156101389960283 1.0149687433707812 -0.6672380105889394
H 3.7856211219975853 0.21653207217514525 -0.36971756240016734
H 1.987195762086806 -0.9705945662872628 1.556884038045304
H 2.75443660132246 -1.7307883026562667 0.1519481979406237
H 1.0182072992448112 -0.9861535262646764 -1.3607503477313856
H 0.32631179373346403 -1.9286958360582263 0.004265603509996116
H 0.47492670287457833 1.1155625110196434 0.39173121255106763
H -1.3790471826939166 0.47970968385145313 -1.5419616073417546
H -2.4109182611984847 1.2090481793544547 1.1576092150180226
H -1.2277534601949203 2.286953129488808 0.36121434788261414
H -2.8437953726859333 1.922668590834033 -0.46143407679417864
H -3.0015564359757896 -0.981189242952289 -0.9691627795169864
H -1.7220062873982207 -1.8304177297943132 -0.06551882867015939
H -2.903751958514191 -0.6865432527641824 0.7826188860676082
