21

C 2.6644152233552805 0.17099348245684823 -0.49655636587941754
C 1.8328722197620055 -0.9010348652764859 0.18426552329012602
C 0.5655885916113055 -1.0915067098044702 -0.633283042858595
C -0.13090101650345642 0.23193742171236748 -0.6407768210938873
C -1.3359786161356464 0.4180490944042424 -0.16600747394050447
C -2.127539135048014 -0.7202678551730485 0.4381160047102265
C -1.9427201738081736 1.7706346745775992 -0.219064922332007
H 2.308247930624456 1.161495403227447 -0.13610550488528075
H 2.4641699406892705 0.1438250436745151 -1.5802290827066756
H 3.7185692438737945 -0.014100236002059587 -0.2826832125238609
H 2.3864711166471793 -1.8449093509322936 0.32595798206160637
H 1.6051843197522806 -0.5148371517121223 1.1995210806657728
H 0.8182835181955552 -1.3218882232369469 -1.6711201700005838
H -0.0596381671334372 -1.8996371928758053 -0.22203141959373932
H 0.42177646822776865 1.0554000025446482 -1.0692233223852416
H -1.4559795881001094 -1.272281364179917 1.1258316468722533
H -2.454168001555145 -1.3557162662901519 -0.41361499766234694
H -2.9924867981319796 -0.2970307485628216 0.980031073353655
H -1.888632649079821 2.2298146149767604 0.8015268934892525
H -1.4087530054752155 2.412479607149907 -0.944050296701043
H -2.98878142176793 1.6385806193218861 -0.5643704124656571
