24

C 3.802871658703233 0.2128440836234351 -0.25075265641052236
C 2.735232240747881 -0.7993433519479687 0.017450113336380874
C 1.5733779607889202 -0.7011949133199018 -0.9471020470414638
C 0.8990346026077549 0.5841069696795084 -0.9213113543266627
C 0.09055508201827403 0.8232072914836407 0.09076948577759865
C -0.7222860371582486 0.9016157715982022 1.103224872688327
C -2.069467307251896 0.39113830185164344 0.8499417325102591
C -2.7948495479821447 -0.47040391626927247 1.463075951190286
C -3.9014693306076285 -0.32330301500191927 0.531384636302135
C -3.057829269227934 0.6639025981642881 -0.16277699605523407
H 3.908183293625412 0.3515270376185124 -1.350695816073606
H 3.5684789577973617 1.1711807067976319 0.22691284624123684
H 4.767192396591609 -0.2175561256843645 0.1493005192198578
H 2.4125230022230166 -0.7801450966393163 1.0688501998276878
H 3.1893733164327625 -1.817072881303182 -0.16203505900900175
H 0.9011089845030008 -1.5666545513915102 -0.7025768414823059
H 1.9387784935385468 -0.8986472781226644 -1.9734741383865293
H 0.9409052576058311 1.4018719294416255 -1.601883089199415
H -0.3302172668515127 1.3144416588524093 1.979397920856804
H -2.6106476361423976 -1.0935087109901518 2.382929189249399
H -4.155119584805401 -1.253010348910723 -0.04307867842548799
H -4.809696836602226 0.09682846284734309 1.0618072735060629
H -3.454631388147281 1.718010694466566 -0.19468078029666286
H -2.8214010424069103 0.29016468315625543 -1.2002947513743003
