22

C 2.9402251806193127 -0.548002913622431 0.9921470862842278
C 1.7143816035786879 0.21315027568330758 0.5763937470248908
C 0.9161443166855795 -0.5243467820815558 -0.48125100283423916
C -0.3048599950946227 0.2340909439146512 -0.8951778633659858
C -1.2550954124192903 0.4912270340889039 0.24031475251540912
C -1.7600705848210692 -0.7649708166564201 0.8789282986787255
C -2.4393609321090963 1.2919214671956996 -0.2505646054417743
H 2.9117065813784393 -1.6224580148539531 0.6985444341553848
H 3.10503959669737 -0.5263668226762659 2.1055949027787277
H 3.8471478036595146 -0.03064048574110404 0.5649382259634746
H 1.934478710951379 1.2273728024978368 0.18612727674129306
H 1.0714323879237173 0.30908742057939187 1.4889167216654096
H 0.6563301033978179 -1.533672389368451 -0.09207000004969376
H 1.5748611037217162 -0.6039655037197267 -1.3792669503065322
H 0.031121806623841786 1.2442011799953432 -1.2603521248546932
H -0.8506116500176978 -0.22000058773745718 -1.7265527706959427
H -2.4705289370643086 -0.45900092919498875 1.685885647882002
H -2.347262909891535 -1.3520249511361837 0.14143049401497867
H -0.9635327302484805 -1.3660251652737485 1.3574957288385012
H -3.275677558280072 0.6469656814559189 -0.5987190294900786
H -2.8691423283248887 1.9453009177379799 0.5551946569012707
H -2.1667261569662406 1.9481576389132762 -1.1238057681797078
