24

C 5.609358378520272 1.8284143318575354 -0.20734684602030043
C 4.397938726058825 0.9937999877629448 -0.10829693089880299
C 3.4113894917460854 0.2968138340339151 -0.04064780083110084
C 2.196478403632105 -0.5388052479440185 0.049645234046811045
C 0.993379934934685 0.26181503185455235 -0.11069598187796816
C -0.13692876926015557 -0.4009641083381334 -0.19199015997520083
C -1.2175946842228644 -1.1542623814237587 -0.17138933284908725
C -1.7670745460498425 -1.4178771323847106 1.121908685946063
C -2.8786258201489563 -0.8011652779038405 1.4940747721635468
C -3.5809569943293678 0.15917913176643472 0.6156345058525968
C -4.875699858659057 -0.4458741261610568 0.12194694251898204
H 5.513031530757662 2.5384869546457964 -1.0469566224814568
H 5.7199840091221725 2.4720173186226266 0.7126171714123765
H 6.507638245570401 1.2120952789218764 -0.2815292907051107
H 2.2807034170747107 -1.2992690336729995 -0.7605451508425151
H 2.2057797861928665 -1.1323092889399957 1.0058703611506639
H 0.86297968848513 1.3058621754716682 -0.17372208087902086
H -1.5322238501338188 -1.46502922896023 -1.1294192032599657
H -1.3304107806732457 -2.1036197517943824 1.8411347985450954
H -2.977787939357368 0.41289868126343426 -0.30278378133029693
H -3.756207835450237 1.1323414898273536 1.1443220937356828
H -5.738064526084243 0.11768961343509284 0.5752720688659095
H -4.940914929556455 -0.4801154769839169 -0.9845996669680664
H -4.9661710782225414 -1.4921227750003203 0.503266677789844
