16

C 2.7017840430900097 1.3558886948754918 0.058442247323600524
C 1.4509388118876823 0.8882257422645407 0.5473450825349282
C 0.3253942895836234 0.4436685013586799 0.9947412328640822
C -0.9421913125167147 -0.03027586062112664 1.492956301996021
C -1.3272218151021782 -1.2458147081886275 0.6738668922332683
C -1.4290199599450444 -0.7618200163541482 -0.7531391784759842
H 3.0122221626271073 2.3202039179164826 0.5332583149481502
H 2.7424017320045793 1.4818170851942762 -1.033714519674503
H 3.4657990133633936 0.548761782103092 0.3005729983719875
H -0.9483723083383353 -0.2385429720434275 2.562093873149618
H -1.7646235159136636 0.7123930651511313 1.2874348131345779
H -2.3088190665980455 -1.6762828934529692 0.957138185544956
H -0.5848085858063298 -2.0706737171896896 0.7728295696994312
H -2.069662893632109 0.17011831673611919 -0.7182399621778531
H -0.4373394483525959 -0.3936839879458142 -1.1005837189471142
H -1.8864811463859548 -1.5039829497487975 -1.4499296615677248
