24

C -4.083285699969304 -0.162055349249476 1.1258735907258188
C -3.473246525930096 -0.08566669687658972 -0.21133293279164997
C -2.9606840632204405 -0.02670169710354559 -1.3006853465543007
C -2.3510751708503626 0.059638643631874405 -2.6158012349152853
C -1.275540667180112 0.8058962447852747 -2.816269281445336
C -0.6719563606103636 1.5539982293890446 -1.753444287828855
C 0.476635159988662 1.0935636570047758 -1.3009173444157103
C 1.551142600476945 0.5043301275002311 -0.8582062719228838
C 1.3746668732828518 -0.4738102784832222 0.16672219483908804
C 2.098342513007081 -0.3160305001930767 1.2429255201141833
C 2.931412296314863 -0.13509788300101158 2.2530418631445945
C 4.233389833320461 -0.7711707985563622 2.115419335924293
H -4.032961004174948 0.8410605897680319 1.6304981752452066
H -3.481886786853981 -0.8843160570787659 1.7010145077719705
H -5.145930796304784 -0.5180700039375579 1.0634565615939986
H -2.7665629896038952 -0.48417734093209175 -3.450420507173958
H -0.8488663779015367 0.8474972700302061 -3.8040398688570285
H -0.9971431074310826 2.4262310092578567 -1.2615536981711666
H 2.4520720852598976 0.8380856981540461 -1.3344532868986119
H 0.7389285396882702 -1.3259285033867494 0.19506807823653227
H 2.5266285297358526 0.45521438070035597 3.026437256344393
H 4.966952698543261 -0.3243803075556874 2.8380420258781145
H 4.581600964922501 -0.6502578409361667 1.0601034087368153
H 4.157367455491834 -1.8622237651524176 2.2885215424199084
