16

C 3.9025104492737657 0.9176785970942167 0.2849574089304118
C 2.5645529557050373 0.3282609115310145 0.1772260490086939
C 1.454942619177189 -0.1377031269186646 0.09064421397015215
C 0.11687757524268183 -0.7030394362708998 -0.03915460461264717
C -0.806680768695495 0.005022715698503219 -0.6078945695053533
C -2.1784210691139716 -0.541189087899092 -0.7555203791949368
C -3.0812805800856973 0.029066395190543052 0.2975111582580775
H 4.416060087468403 0.7499342197174431 -0.689419963852946
H 3.826895320939248 1.9904671531857903 0.5518154869720612
H 4.467622996349668 0.4252942713428406 1.1306434897912963
H -0.11104981527035562 -1.6912191552070068 0.327885034923929
H -2.5259251955829165 -0.22264947242423527 -1.7819180293264787
H -2.165189705229108 -1.6454765667359825 -0.6740423072844336
H -2.5218490169782966 0.8209643723983672 0.8699227429598114
H -3.3787228719979168 -0.7705400974210453 1.011740147413942
H -3.9803429812669724 0.4451283066227447 -0.19439587842018746
