15

C -3.1370268474272023 0.18931547291610662 -0.2606230314104306
C -1.714917325604955 0.30002281928883345 0.03105672904917147
C -0.5406508553395669 0.4118435799471481 0.27508870255051915
C 0.8843764688743642 0.5731446406971433 0.5736772955387207
C 1.7421121007352718 0.9563438109970852 -0.5212907447671342
C 2.3727560286962293 -0.16226346601764208 -0.5153474362485974
C 1.614919388343232 -0.7082374048577637 0.5721985324138011
H -3.4181138858526268 1.0520565978008267 -0.9121684187821647
H -3.752773753078499 0.1305243193207416 0.6483720304102952
H -3.3013507861917155 -0.733003463732157 -0.8749147636123118
H 1.0706275685626356 1.221478100895812 1.4723219407534127
H 1.8516619198036826 1.8842315401999075 -1.1701845079525064
H 3.2025300500493357 -0.5615309869932482 -1.1286818394475115
H 0.966711659956273 -1.5772008716202275 0.2749810141483367
H 2.1591382690050183 -0.9079599642280286 1.535514496759944
