17

C 3.789131808767035 0.25666011706690645 0.9291016748536705
C 2.372422044786714 0.14465319086769393 0.6068788206273642
C 1.1962503261794075 0.06900385609732271 0.3518818741629174
C -0.21783665045851847 0.00042231831843370364 0.05655519027116192
C -1.0671259687627872 1.0514757592845332 0.2703334801876837
C -2.4192395560601048 0.9522264398894016 -0.024072494179931687
C -2.963644939486381 -0.20367995337715206 -0.5422266832729775
C -2.0950553419902853 -1.2550555149245273 -0.7524251543244171
C -0.74345657741582 -1.1593528783952232 -0.4593873890855067
H 3.9195420570792487 -0.04263205205457364 1.98140906616681
H 4.179795804559426 1.2803604966454516 0.8050640937962912
H 4.412020127868842 -0.4103177427432597 0.31105086306541
H -0.653832777387549 1.972750617926652 0.6793610196872112
H -3.0940290267229837 1.780766500243098 0.14342972636801138
H -4.0151989625621045 -0.2703196742223085 -0.7674052321332417
H -2.521391040290037 -2.169235651188516 -1.16141218417826
H -0.0783513281054997 -1.99772582943724 -0.6322777190518692
