14

C 2.089389445485545 -1.973675498072139 0.5779032535213842
C 1.029257195646483 -1.2509274286302339 0.2702083837067773
C -0.03473540102774585 -0.5413553023036288 -0.01797845161920664
C -0.3823457886470935 -0.017098895600450224 -1.2973994577217876
C -1.1098534062198224 1.1272394614384058 -1.228219780595845
C -1.2621012654686337 1.4136540774372224 0.30179286109250547
C 0.11016464621557939 0.9192671625635966 0.7231732301378195
H 2.991490637395059 -2.5766566607546397 0.8348692748349944
H -0.9830139402603495 -0.9702375104516042 0.5437178051516963
H -0.10781496606263444 -0.4928520363125085 -2.2708389570483756
H -1.4611556539800954 1.6373811914167433 -2.085519509752963
H -2.0196657563723477 0.6919343792923477 0.6761289694674375
H 0.21066408653411045 0.6684441097586474 1.7683970913276963
H 0.9297201668242836 1.3648829501812592 0.17898692702681532
