12

C -3.2919899747487475 0.15545334977769104 1.2089282325379425
C -2.572225540260335 -0.40403461067110724 0.4201243742236134
C -1.6890350169280937 -1.0861114633817677 -0.5121874312293387
C -0.41250294135692367 -0.7539296715290646 -0.5547827308296589
C 0.8080853215498639 -0.3834712953284987 -0.4200144557815845
C 2.0439632769644134 0.026295177765856916 -0.4302343247138544
C 2.437468289594664 1.2975505025253278 -1.1179408494937302
H -3.9256169538628063 0.6384103904496768 1.9207000153860923
H -2.0625145967043976 -1.8447970753678107 -1.1546568438276268
H 2.8447901721527225 -0.5199036059432436 0.0501650919650633
H 2.4583587293941482 1.159323546271181 -2.199379000574863
H 3.361219234169703 1.7152147554167125 -0.7212892477698144
