16

C -2.5628673979550687 1.3743994785171574 0.2849649234149284
C -2.005225273331973 0.35455708619411686 -0.1330100566795553
C -1.3914165975302877 -0.8190539722506233 -0.6085281412435812
C -0.39569749075989824 -1.350477670247898 0.07114486539958066
C 0.17972950224132067 -0.8538298058608426 1.3243413869131773
C 1.5387243792711114 -0.34089815035349386 1.1169973518595544
C 2.0013994943475253 0.21852801275290198 0.08370377631414322
C 1.4653749876266844 0.5671218154260007 -1.2106275199362786
H -3.058334173194319 2.270508258177849 0.6484446899138415
H -1.7025396619635493 -1.3106183904398487 -1.512885073832969
H -0.5088416152932436 -0.06349122571665645 1.755094100485153
H 0.2132291690402753 -1.6942300470885365 2.0987718659622203
H 2.210145278933045 -0.48173283659468835 2.013908752128785
H 2.2355346589195264 1.249688301552212 -1.6974842271263466
H 1.2690431385533114 -0.2919364435845358 -1.8897353261788739
H 0.5117416011930757 1.1714655894597938 -1.184599470865581
