16

C 3.1917316251114087 1.0993721231658073 0.02574011289438928
C 2.484171821912494 0.1238976079060427 -0.020766184785739866
C 1.6175460992346238 -1.056394349825125 -0.06928455359100648
C 0.5881639245962894 -0.9316720724185019 -1.1075591362739043
C -0.6464861100267468 -0.5226553305250891 -0.9324568628159455
C -1.1239819928270025 -0.1334239898355258 0.40035489913469346
C -2.3819165480518607 0.7234793213896612 0.3204621647088302
H 3.8370792832897838 1.9609537611672916 0.07628668841290134
H 1.1885762777664777 -1.1876768889804503 0.9637904561097422
H 2.2506724640660076 -1.9505539988287572 -0.34472589514825785
H -1.3036357937718366 -0.47751965447397327 -1.7843899968757804
H -1.327150899130046 -0.9841176116362688 1.0765523859755972
H -0.3569212442436753 0.4996246957717646 0.9292780327055817
H -2.5476368808733616 1.110970896696198 1.348402736443051
H -2.2126629126281174 1.591566434154055 -0.34045171112073896
H -3.2575491144244975 0.1341490562727805 -0.015787017428365302
