18

C 4.03739966385888 1.4230866253987247 0.38932914875191965
C 3.170155600849825 -0.18668489979811548 0.1227808403038764
C 2.834792057143199 -0.8296598128202124 0.02305543406307015
C 1.4457744678241187 -0.9480078662748581 -0.7092395142513723
C 0.9396551096020033 0.43840874053263 -1.0222611963857915
C -0.3201085031931646 0.6788522160658043 -0.4435332162761864
C -1.6344889747811284 0.8565742055492988 -0.7784911020668619
C -2.4336384304189234 -0.379729013050247 -0.6708865749662087
C -3.388658747419729 -0.3435098439238388 0.5422449461309773
H 4.504385208529483 2.3192363256383595 0.5261660579164454
H 2.7778575066399744 -2.0339655465891906 0.2951053381954484
H 1.1347554161070823 -1.7560595153931715 -1.0159824573987024
H 1.3842916624106825 1.1897900837986302 -1.552430501777918
H -1.8191216455632184 1.8058849297291966 -1.0567077824827795
H -1.7497452275192986 -1.2807501215783184 -0.5446245038019178
H -3.6754905566445113 0.7441965269518283 0.6451305358333866
H -2.9341472959942037 -0.7398693798216394 1.4502254831126566
H -4.273667311246706 -0.9577936539174743 0.22819903828752483
