13

C 2.0901634245230953 1.3956020198978643 0.2552124869929344
C 1.3312063030272903 0.6347185002683599 -0.3303743799439283
C 0.41029703214773433 -0.25884439990457236 -1.0363474265425117
C -0.49990818558963107 -0.9714861256739509 -0.041539830349492726
C -1.3144006130606216 0.031231237875269876 0.7468719571703679
H 2.758454053036348 2.0555036024122275 0.7475184100328227
H -0.16749482520640024 0.37093575298664677 -1.7350981602246025
H 1.000059053451106 -0.9726319952602979 -1.613885835071016
H 0.18934570542294168 -1.4773839454676008 0.6780534004417169
H -1.1702136111798382 -1.6832025388044884 -0.5514099047162828
H -1.2069963153815189 1.055493751722135 0.3395491220667897
H -1.0209955171473264 0.05451501833234714 1.807664247280461
H -2.3995165040994855 -0.23445087845398682 0.7337859128479569
