37

C -4.072433542062966 1.4149904456587616 -3.5150827296880567
C -3.781496399303728 0.5557966077065639 -2.6707592713835155
C -3.449864620048775 -0.4105384943465572 -1.6868422296095487
C -2.2626881673633017 -0.5335688693362137 -1.109128912111439
C -1.0060118809999874 0.22929756072911273 -1.2868151867923634
C 0.08329450941740706 -0.30633656447131913 -0.4276249784679121
C -0.11210465091149938 -1.3189859197342353 0.40399891681694144
C 1.0778187163033086 -1.6775740980042084 1.1449519770421213
C 2.0320555156368707 -0.8338670276235933 0.7264327164879976
C 1.4957603573919618 0.09184152002979813 -0.2919790120102073
C 1.746580023780446 1.508151761085463 -0.04161180951278398
C 2.810086106956528 1.9522655429320392 0.6287041855740688
C 3.122349579009824 3.3559882681062914 0.9142895165251728
C 4.478016954329024 3.646810399829678 0.25603559197164283
C 0.9940973712396809 -2.7853272821458326 2.114018647338874
C -0.32152790769187456 -3.4108154709373077 2.1786878370365517
C -1.4095300677912097 -3.1128450611206095 1.5076955049837677
C -1.3787675261745316 -2.0208486789543354 0.5501261280608183
C -2.420285207669235 -1.6512898110809413 -0.1775855855492547
C -3.784186155851677 -2.1500752945022867 -0.2699318717795805
C -4.392025003657042 -1.407384617234206 -1.17023774597968
H -4.306643408833629 2.1516888172195787 -4.219430766127125
H -1.2540811421565825 1.277986886399501 -1.014771888789192
H -0.7374220779045034 0.2130512375732158 -2.359934981984871
H 3.0360009890908817 -0.8748739823136431 1.1140453233724616
H 1.0530523247644188 2.2596314157595225 -0.407799464566994
H 3.511480887422323 1.2015469911523353 0.9997400480481831
H 2.3716706348777596 4.076348100020255 0.5763444430358463
H 3.247692855588432 3.482289418594107 2.0037431891405384
H 4.911846597134667 4.568574959510939 0.6634128113435137
H 5.105493470832776 2.7312783463674473 0.4678841856709546
H 4.276290957527839 3.7345367036827044 -0.8278307492714944
H 1.7243753497994103 -3.5931064899763925 1.9076248430004896
H -0.41603643478701147 -4.250131586398536 2.890668681761897
H -2.3497354827917167 -3.648718181234181 1.6289759663069006
H -4.204501078901553 -2.971433019484132 0.29823293689109387
H -5.4186224465507316 -1.4943545336707218 -1.498246267320413
