26

C 1.470339088676999 -5.441727268015612 -1.477390623526656
C 1.4553735625876378 -4.480159754105516 -1.11519017373807
C 1.4480016712990234 -3.0972343122943324 -0.6147868197236561
C 0.6533826611523127 -2.1581112706416232 -0.7391853676656815
C -0.6418507475070026 -1.9961290723027416 -1.4407950851827038
C -1.1819324455390252 -0.711189536680736 -1.2268821037622712
C -0.618240998595085 -0.001678787975888193 -0.20447834263293313
C 0.010174166003396106 0.8062182088271902 0.5682930262432961
C 0.41334412374171736 0.44316141928202996 1.8644138830333055
C 0.1964589063462281 2.167184148833841 -0.08425179854181372
C -0.6216256591444743 3.0345974331808403 0.40812746048659015
C -1.5866552545466248 2.5972776279540915 1.483756560680016
C -0.6318572710066865 4.43708654045168 0.016541717402067106
H 1.4919776499182147 -6.626499593407962 -1.9237331147659673
H 2.4694055545576026 -2.906364846666463 -0.09310737022080173
H 0.9931278396694709 -1.197668907023246 -0.1923640654290478
H -0.7644054898614826 -2.489823716009682 -2.393726407434823
H -1.9328378246216331 -0.06733067176126645 -1.6511332359521829
H 1.5167067282422695 0.13714571755832772 1.9310281545362358
H -0.22504044783100408 -0.46773902506921533 2.211048813072828
H 0.24784046266404297 1.2313043920921996 2.6479595089093872
H 0.927226354726167 2.233133447413993 -0.8500983665324485
H -1.723131124945252 1.5116315226965686 1.5325863179685881
H -1.34547099721982 3.100956505562008 2.4491684378984075
H -0.5022167876847595 5.109761361260285 0.9547769144332909
H -1.5180937219012656 4.8321984342489195 -0.5232755370499204
