30

C -6.371122443793094 4.93758713801134 1.2368874794830413
C -5.604179481564838 4.047227568238885 1.134615755200655
C -4.68310701472073 3.0042448313581596 1.0309789529208477
C -3.3952508324226907 3.003561918365896 0.859653112073397
C -2.6955438962070826 1.7297974477103444 0.789680975077061
C -1.4517691064473723 1.472661651344071 0.5880130952676291
C -1.067636784511618 0.03283540429489707 0.5949950819054821
C 0.14694769814207187 -0.35014811057780654 0.41160002756488673
C 1.2480684875243278 0.6530836771445352 0.1768583227350256
C 0.5198840928835295 -1.7664880908096743 0.4133659327946123
C 1.541340558639735 -2.074962569135253 -0.37820271630626356
C 2.799989937841282 -2.305623623790421 -0.6466325438611503
C 4.19732666445882 -2.0462981065378507 -0.4153770081737347
C 3.774111685208621 -3.019409471399613 -1.4056213935587272
C 4.211397614144485 -3.8775967507903712 -2.280833635724044
C 4.542526768954423 -4.51828602568333 -3.386849193687348
H -7.0980056564524645 5.754779336714995 1.3390607937039856
H -5.126390739721374 1.9649901955543136 1.113288048201558
H -2.835299530045498 3.929360146384823 0.768898012222079
H -3.3731251412778325 0.8351734553301466 0.9461235841899723
H -0.6978070856693114 2.2034830036650126 0.4324647996480264
H -1.8588131054191743 -0.6721661514528208 0.7686967407928011
H 1.603470196830082 1.1112855192539062 1.1325050760281432
H 2.1312899783151917 0.18480529568424536 -0.27984344589660676
H 0.9101835591669619 1.4354232851352313 -0.5186120980382548
H 0.08295643605004938 -2.546490135478755 0.9529293409569604
H 4.56489683195387 -1.0417046539382366 -0.7168602120325865
H 4.669475152529009 -2.4422279419068933 0.49678585708231715
H 4.322321576496528 -5.562043299948978 -3.3636727139681573
H 4.99186357906783 -4.076854942649616 -4.239159749821188
