37

C -3.275335548077768 -3.5237575905020946 0.02989572282500962
C -2.889161256847233 -2.8734493856988284 -0.7128578959999705
C -2.365833599906368 -1.968771979901923 -1.7712364133508725
C -1.1683418262185232 -1.4401418677450273 -1.71292772360705
C -0.045452737642891594 -1.514581730228444 -0.7425483973672745
C 0.3962046690444624 -0.10430471467014758 -0.4768212630346355
C 0.12713034922807334 0.8522021350071868 -1.336151025818293
C 0.6599921112640844 2.112785169187849 -0.8441209897902971
C 0.3844472783143654 3.1974156570284773 -1.6596476108892562
C -0.3153704954417883 3.0784742365986637 -2.8259981933111074
C -0.8402706464000376 1.8307131183022185 -3.333573507861429
C -0.603681154895405 0.7232142415437691 -2.5685983433695605
C -1.055247634793258 -0.6061979667293544 -2.9526227917973493
C -2.2951358079310085 -0.7599199116067165 -3.6539894273335727
C -3.0789245674480457 -1.5658933740761505 -2.9555666580987037
C 1.248511676589571 1.8474290086974863 0.3752828014932199
C 1.1164964753609155 0.5089665446156645 0.6360236098523686
C 1.575053061757431 -0.23072065927832439 1.7887516739019855
C 2.214567414776671 0.320894056625763 2.799520290219739
C 2.6518338632433265 -0.4866925295917022 3.9449043696819057
C 1.9472629522731988 0.09248898455909528 5.1671089091409295
H -3.7346227606269418 -4.255823042232996 0.8844886232181219
H 0.7797069344705932 -2.1105019425624993 -1.1694530817359703
H -0.41413811154041485 -2.03091987409441 0.15823552377236483
H 0.6948755531618207 4.225808974888803 -1.4474991366733156
H -0.4911946762088788 3.9711999292917075 -3.407817707403923
H -1.3863543048628193 1.6864738342548704 -4.243910542844953
H -2.593358244513471 -0.3168561216406365 -4.589242175839981
H -4.107364608823623 -1.8675279881998337 -3.251701564500195
H 1.7562199909303187 2.4504388503503756 1.1126218817782525
H 1.401899849211858 -1.3205102853860788 1.8740623662526494
H 2.4165479100235117 1.3758242963009462 2.7840720434259834
H 2.346834701995548 -1.5674617112268772 3.820606593706417
H 3.7387670063986898 -0.47730693157868703 4.0554374160042626
H 2.19165691130334 -0.4239033578578827 6.089904565941308
H 0.8490599864104179 -0.0056318387419782776 5.002982379133714
H 2.162719286284551 1.1765457663232421 5.132385680307854
