12

C 2.4571222666015853 1.0392611039057098 -0.42986085618968267
C 1.6708816535581568 0.14903529611361827 -0.21738951560914335
C 0.699692182763943 -0.9383338836577106 0.023091161436713938
C -0.47867355947329776 -0.8011192518610994 -0.8477894094381612
C -1.5973017831600267 -0.1993882801041132 -0.5453635648749873
C -1.9077193350067492 0.46632064902434833 0.7329868946247502
H 3.144254799735422 1.8393172290430289 -0.6293860695122133
H 0.4493768019961776 -0.9729726496431779 1.0980201060454111
H 1.224125791204154 -1.8868056790800405 -0.2249590111540282
H -2.3767498753602525 -0.1881173977170599 -1.3117440592303422
H -1.7782141168103618 1.5483779253518173 0.7338620176225199
H -1.5067948260486828 -0.05557506137577409 1.6185323062791004
