14

C 3.012612300999103 1.375583152164558 1.3064085327015007
C 1.8993531113344342 0.8872523089607742 1.411043444661632
C 0.5913744295656115 0.3273629796824298 1.5121497031756148
C -0.3832809360045935 0.15111036351232218 0.7772183652808067
C -0.41799655670215174 0.5710435832813767 -0.6896006635182765
C -1.4715118958463391 -0.1738462071743328 -1.4055707860630173
C -1.4982723281161037 -1.4598592119441611 -1.5274156046109166
H 3.961492777782843 1.7961656904910215 1.205028014528102
H 0.4051076778257055 -0.06322796959581156 2.5996556219604163
H -1.315298962823802 -0.3232618060284732 1.128051435705169
H 0.5642348311430051 0.5752114646323755 -1.1306893626493086
H -2.2656806512401158 0.4492554111912033 -1.8558242821245057
H -0.7559002096661254 -2.172498314771945 -1.1210710617556463
H -2.3262335699981875 -1.940291440362213 -2.071809347766221
