23

C -3.7779203972227924 -0.9378071967241273 2.318154241050802
C -3.099601424180361 -1.2682306271313766 1.2973478823768227
C -2.533002183746694 -1.5653666482861406 0.4285149078105838
C -1.1701618953074329 -1.0044217581737527 0.04479701193673254
C -0.5426053693652744 0.08957777574959898 0.8146489394115431
C 0.6840303167440046 0.08818102413343268 -0.12186659195437895
C 1.035767777749038 1.8122975819255094 0.4656974833766525
C 0.46904085581496596 2.2116617486049743 1.3496825014608547
C 1.5958594872109744 0.12171015188808422 -0.7638149890652577
C 2.0413967892489184 -0.4148740256012269 -2.049485608720066
C 3.378585362168929 -0.2539793003789484 -2.1838630072819223
H -4.4912961407452014 -0.5629053214838377 3.4091357081290914
H -2.5208534509231715 -2.7023895387978762 0.05501986368408108
H -3.1451953041297163 -1.218959016706767 -0.6534767103447189
H -0.6911658865727273 -1.3464098746584898 -0.7313037416581744
H -0.8161540391258095 0.5382185148999818 1.5125734910663418
H 1.736288952322111 2.130179491858115 -0.29460012300416155
H 0.6639197556093991 3.326218125608551 1.7525590558045165
H -0.43495562464834103 1.7603453601335395 1.9327926505967497
H 2.567993440826564 0.7736212969683146 -0.41989558400726573
H 1.381758184961257 -0.6809509430823867 -2.8494462599503683
H 4.217921144595021 -0.016102748034726763 -1.9902108059961494
H 3.4503496486677165 -0.8796140725472748 -3.3229603147166955
