34

C 0.5642761031557979 3.879362284935377 -0.33391697548449656
C -0.1053652923276656 2.9324470919821732 -0.8207446261122694
C -0.9118347950880802 1.7569187538228477 -1.4389580484721038
C -0.20421083845236324 0.6979052675501014 -0.5450364892768085
C 1.131643500010579 0.49494301853342837 -1.0549901009661753
C 1.6802124139124035 -0.6534847946802212 -1.1991711800116327
C 1.957485468560068 -1.9220621495521732 -1.2547878974883226
C 2.2050591793458567 -2.5018352317251344 -2.544250903106911
C 1.8425525686631188 -2.650890276512412 -0.010517958835237113
C 2.8940680684450584 -2.7293080739445754 0.7199382084081289
C 4.103977349270571 -2.5909885793124383 1.289126785611145
C -0.9530256931381978 0.3956964786501653 0.4002007641884115
C -1.002409852234175 -0.40567265140061204 1.6092493173715345
C -1.6546493073632407 -0.21795027438936113 2.8008005081014105
C -2.525410570804712 0.8781726860980451 3.2306260774317237
C -2.7351217762899376 2.00399279886693 2.5129631575342852
C -3.040225745794117 1.8315881348205565 1.2572940619560624
C -2.4016250703398643 1.0612080717752248 0.2432375394756466
C -3.0437170857395137 0.6666525966073302 -0.8345828844188041
H 1.2130276693374489 4.777598880552677 0.15154364938496198
H -0.49071264745572674 1.722473586162387 -2.43879743238913
H -1.832652668426168 2.104610106014147 -1.2483536505240789
H 1.863010884368479 1.2820675896449798 -1.3006695121474385
H 1.3139447522886072 -3.1842820592810726 -2.7782969054913127
H 3.1432264285590255 -3.1106888506873625 -2.5441059646020254
H 2.339291234007995 -1.7506752709996332 -3.3266988430055964
H 0.9600123834709464 -3.1304271026791426 0.34448198140682185
H 4.106232571058951 -1.8767292747335003 2.062833208565879
H 4.853980678519671 -3.19365913514432 0.8705469479421712
H -1.5162769142339703 -1.0188823351626461 3.5640028400049983
H -3.0800007085621024 0.7953382887090302 4.121708491751684
H -3.9580154155435308 2.4089329903402885 0.9814143306961938
H -2.7275885229962222 -0.028418745291054356 -1.55638371234442
H -3.989158348185241 1.276046180073503 -0.9297047852576942
