18

C -3.9784987923758606 2.1078141531884236 0.3362699369892468
C -3.5344663926201694 0.8877629249765182 0.30285332094136735
C -3.076554624043034 -0.3465636038287954 0.29068255370987606
C -1.919954960148685 -0.5922501471531324 -0.35247635591087645
C -0.6138316646306188 -0.6024381585017883 -0.629182000343194
C 0.18139312182076364 -1.3719246153411957 0.2519704673029082
C 1.3279287002157085 -0.9787218652558851 0.6838298430257171
C 2.000737587042417 0.2692735589984169 0.3641706299862283
C 3.354932050973932 -0.06156378549743367 -0.2556715391919136
H -4.34011292196584 3.10634484396697 0.3743379060890962
H -3.438630820648873 -1.2752759065018178 0.7098006916169132
H -0.3808836067077702 -0.040447304057645274 -1.4767696877776624
H -0.13257763630780572 -2.3660961553735236 0.6229854575555078
H 1.4015008627098857 0.8688993839381949 -0.342966721234717
H 2.2510088095911063 0.8488717045184496 1.3036358170923295
H 4.047741231964617 0.7615896147065971 -0.02287766964282621
H 3.674960568825003 -1.0554695254432498 0.08408130187037154
H 3.1753084861873533 -0.15980511732964617 -1.362768501696167
