16

C 1.438476478307408 -2.7262302299496564 1.7453553884305015
C 1.658586338886527 -1.9228861439674068 0.7420288862738313
C 1.923169455153204 -1.0473553987934814 -0.35715189161407257
C 0.6106216582094982 -0.47300493350365924 -0.7756773548204551
C 0.153434318989631 0.6798891812726341 -0.3926563616157433
C -1.1276708632630856 1.2752037835610892 -0.7799300426304507
C -1.8558740575506039 1.8876318203872173 0.3985356669108839
H 1.2774271146186482 -3.270153084545779 2.445263492740766
H 2.522491440416172 -0.17440470411749157 0.030889871736566224
H 2.4537779010865055 -1.4725046468752894 -1.1947989926952272
H -0.010068787512665186 -1.0892786579887577 -1.4530581092999038
H -1.0263703228708907 1.9456652584821643 -1.6507404572999096
H -1.7992721950559942 0.43364352452127475 -1.1432206687141917
H -2.913212968181205 2.1518730375582207 0.196385065694744
H -1.9513854668137105 1.064648736507969 1.169839969934878
H -1.354130044574293 2.737262457414454 0.8662683372590044
