37

C 5.796271012991661 0.2020716780038469 1.3108085893152672
C 5.01412641239989 0.44837484341614636 0.374489502046203
C 4.084681817670907 0.7198199480429155 -0.707961778650417
C 2.8615831768859796 -0.10514555711127908 -0.5760443376712037
C 1.6999349162017232 0.4158446621326706 -0.11303677362124732
C 0.5482744966773317 -0.43996717715424677 -0.007043661705965551
C -0.5857691868891198 0.034710391398631704 0.3966876710948471
C -0.790668032566198 1.3759738722261645 0.7488324036490974
C -2.200690227103126 1.5801799641228167 1.3969949350435635
C -0.1409946718034662 2.488959660174153 0.7923938635714877
C -0.7919921765586929 3.8029482615002697 1.271392983208582
C -1.8452567170631389 -0.8538164278388473 0.45910634160038033
C -1.9518504963588141 -1.7820578040855921 -0.65333702509356
C -3.113881951825874 -1.772549221938314 -1.2971052706675184
C -1.0066503104392601 -2.731173605030773 -1.1909539743800184
C -1.4007334962474887 -3.639104831927311 -2.300269874448471
C 0.21932458604320135 -2.844139654594586 -0.7476837401930243
C 0.9137947211390994 -1.839844547821455 -0.37214910752615915
H 6.464600133360315 -0.0006918111027656108 2.083026198632323
H 3.729556242165979 1.7914335021413343 -0.6420033129138947
H 4.549482743650511 0.6287317171447531 -1.7032972861031783
H 1.8149307458493074 1.4301309880414261 0.1394936094385574
H -2.8695290785995393 1.7444169372036857 0.5608591839498833
H -2.480587782497074 0.6848731970299504 1.959394769257744
H -2.1667712321932986 2.4196434408368956 2.087850293899509
H 0.8588866999039948 2.6903778236667537 0.5199403312662069
H -0.18015447135766247 4.660943671227882 0.9014264516002698
H -1.7866323915191147 3.8069425322313006 0.8006009842966606
H -0.8690099639089961 3.777343545743796 2.3480243687841393
H -2.7356435056387993 -0.17237098218260996 0.3865278661804737
H -1.8133507280008332 -1.3503490705657524 1.4442762809387464
H -3.8800058688322108 -1.098396845623527 -0.9600748661924002
H -3.30903840932015 -2.413401518982869 -2.13232903892264
H -1.684456903591375 -3.0398956988427033 -3.171429660018392
H -2.3339419386738625 -4.187296139080709 -1.9744416898433466
H -0.59237087703733 -4.373117781949235 -2.5208491630352303
H 1.974532712861559 -2.0604019606456396 -0.3081146669398644
