36

C 7.777882266810349 -2.0369065468302314 -0.3065848672619241
C 6.696804792291249 -1.5388459893953823 0.03128691936087791
C 5.418181048040101 -0.934667253261948 0.4548750839510464
C 4.891373187880644 -0.07498513880297875 -0.2805925944858429
C 4.144821930115467 0.8281283062184199 -0.8526855653212725
C 3.018905327644422 1.2596252329010504 -0.24676171068688846
C 1.8721863501053506 1.584525902839218 0.2784080769326241
C 0.7980628008395606 0.6676935439629776 0.1280408742153225
C -0.17549537773830826 0.8337673488979543 0.9401336754892714
C -1.3133211873532968 0.2432622757668181 0.9530562871900484
C -2.429333931391657 1.1022312760463993 1.4821391681617975
C -3.4816333251078615 1.2813404762908482 0.5000557250091506
C -4.378907770306144 0.27099838643513874 -0.044665466801280744
C -3.66115801214051 2.480581596853788 0.033397394271042775
C -3.6904129846800324 3.6729408696133374 -0.5569698723251966
C -1.6939291819652886 -1.1148761794649777 0.529810081711627
C -1.0498455467016332 -1.839038623743049 -0.40290770255692004
C -1.5916844318015069 -3.1851164227192466 -0.6848955475785753
C 0.13212945978490034 -1.392360954046706 -1.117582843803793
C 0.93059903957029 -0.3548421731474924 -0.9323002617615239
H 8.729828855218344 -2.474089615695149 -0.5871635162082058
H 5.00499970975251 -1.2858038051709706 1.407477941859884
H 4.232719609233634 1.382358687092297 -1.8180544943235932
H 1.9088295604855707 2.528837976716099 0.7701563267113452
H -2.045106734253404 2.0022897854276236 1.9473845627686748
H -2.9010826032683372 0.4828193098596315 2.312960232494141
H -4.591272379939811 -0.47756500963418846 0.7699534495871843
H -5.303059453065956 0.6957724182993608 -0.475987433464457
H -3.8681990901300276 -0.3326773411992343 -0.8351517770083232
H -4.4025295527761354 4.295602454312659 -0.11513700082723038
H -3.0001007637539177 3.7836380723654774 -1.3557304095574938
H -2.5310377986657087 -1.5726152072565116 0.9935507437999549
H -0.9039348973228881 -3.7300319956862356 -1.3620864522064349
H -2.637169403290631 -3.1349614986270478 -1.0999579136526034
H -1.68004205947607 -3.7448752792078177 0.28526179775735516
H 1.7719325473117247 -0.17215488603220866 -1.5763793456423771
