21

C -3.7796115355201723 0.4681789460517841 2.1973562045259563
C -3.4601673629708904 -0.4726844744883853 1.4905134223043333
C -3.0696508544791183 -1.5872030391388383 0.6558394817316012
C -1.8742004053331203 -1.3264421956097068 -0.1533851520512464
C -0.8948137026569414 -0.513527800082391 0.17192061727116248
C 0.2853762528241418 -0.3043339776795041 -0.7065260450707795
C 0.775920000807228 1.0846368642213409 -0.5806737520898321
C 1.9634211756449227 1.4369228295529721 -0.18092078914960744
C 3.0153680382828782 0.5187574601585037 0.2123190884543383
C 4.200862565205661 0.958644496668378 0.6081585469290864
H -4.0393026268405565 1.2902063592602784 2.812299939597181
H -3.93185131204119 -1.8946721706577443 -0.0031029159832327968
H -2.926279781174074 -2.4706929903094337 1.3432963540371834
H -1.797956420430195 -1.8585299447595223 -1.1098562053092227
H -0.07796887811735516 -0.4775057323170644 -1.7570463924754065
H 1.095124135008795 -1.0103215823825802 -0.5500533892070922
H 0.06668886825951867 1.8906402559734923 -0.8515257293514635
H 2.216896073059335 2.511769587006188 -0.1273743500292916
H 2.874998286528293 -0.5454388571382264 0.1987366478345476
H 4.376206203037763 2.02625660366078 0.6345354881877533
H 4.980941280905246 0.2753393620083072 0.8998385381965901
