26

C 3.637180997575201 1.3086730438336032 0.5089754951586744
C 3.137395725131426 0.3334119342740134 1.0438387330328118
C 2.530320554745851 -0.8503701502739123 1.6650731484102066
C 1.1604399929624252 -1.0595903131428517 1.1347009339515823
C 0.9691548703364689 -1.9831310936310507 0.2176349750548757
C -0.35265637987279097 -2.276754667927443 -0.38061144322842144
C -1.3572970451762618 -1.2492871840036874 -0.12085661840329004
C -1.8861880484646798 -0.6451195751419853 -1.1800874210787642
C -2.1408518810561774 0.13722097524999055 -2.2054005942465134
C -1.2553762726078546 1.2623465964093346 -2.4388673082439722
C -1.7197230347832115 2.478683823881807 -2.5874833953626646
C -1.8357132169849397 -0.8138733480949426 1.141621130932511
C -1.5562528637935191 0.4005186637263781 1.5268175160212487
C -1.2196030078970201 1.62776218911673 1.8109415866532812
H 4.0797195292881385 2.165381077762459 0.05816319272214808
H 3.1702365011405305 -1.7496039020290364 1.5159477881952885
H 2.4085755164149734 -0.6135742953118805 2.7549034596931894
H 1.8094667640283404 -2.562959764747264 -0.12451374112028686
H -0.7354556985494494 -3.23108529528331 0.0385978135041582
H -0.1929429457955865 -2.455196847375557 -1.4499797684194504
H -0.2034751335246629 1.0880077428300379 -2.4894922219302376
H -1.0435834050320074 3.2970455127963088 -2.759639399154961
H -2.789748269193702 2.6471265136144724 -2.5346624393268034
H -2.4193869397193777 -1.3725492796702778 1.84876379366746
H -1.9030925437153452 2.3769577744662245 1.4978505124763557
H -0.29114378251097384 1.739959857335887 2.3269727618004215
