10

C 2.448915601016468 1.7427540525334717 0.794818455177839
C 1.41606363339087 0.9523589699480047 0.2221435254806058
C 0.4147912081727648 0.1754667233063392 -0.31158814654249967
C -0.5666611669314091 -0.24043542119294442 0.4081780004505499
C -1.6567203049712325 -1.0992418000599196 -0.10156408375450098
H 3.0566607730913202 2.1994556315739344 1.1217057658544285
H 0.47088494049086566 -0.152680910332272 -1.4145115006198357
H -1.4425345061109303 -1.4937873984152485 -1.1529636891047086
H -1.607164317501404 -2.0936061365432894 0.47808166619893555
H -2.5342358609089426 -0.5258230825354449 -0.04429999269757974
