19

C 3.2359132649471563 1.6070597633947206 1.0154689609508534
C 2.4413365894324084 0.6977858485778746 1.016371458001137
C 1.486200916790101 -0.4312083678276466 1.0078994156741814
C 0.08691481196084834 0.046806334975583876 1.3546185812380325
C -0.132571685017235 0.2974117726931049 -0.11937080514808471
C -1.4781961319852517 -0.14943898127671656 -0.5389018365612502
C -2.2805026525527747 -1.0756624809482311 -1.0975597695872903
C -2.9190391609436 0.15719155636155652 -0.6210050798630831
C 0.9755290150572667 -0.6827998160434258 -0.4042533053660808
H 3.930009780432043 2.422040732547986 1.0274619554656574
H 1.8265245250997564 -1.3317859600238935 1.5270699413288367
H -0.5608859408847496 -0.707378176778371 1.8200001406377313
H 0.12714905242871216 1.0294463208696372 1.8998333528858027
H 0.06962865533120711 1.3271607976608883 -0.45647951112175694
H -2.3757571943452107 -2.051859857016296 -1.5689360279079954
H -3.271496286648918 0.9130777380168676 -1.327504240258551
H -3.5733897816910862 0.01832018930531502 0.26535744953023055
H 1.7295251756562557 -0.36463596795072156 -1.1328197749373197
H 0.6831070469287269 -1.7215314465127698 -0.5597803608103695
