32

C -3.15342656435654 3.8273013756470293 -1.2245779605999172
C -2.166263201569537 3.5184733261993113 -0.5689234904510282
C -0.9882833651846998 3.141938208757324 0.1906786839996384
C -1.0743988192497145 2.054034182558783 0.9182011906368844
C -2.2820097936840584 1.2294080120565711 0.9807827375610922
C -1.9438818624269545 -0.1192019923442152 0.550092142952792
C -2.098346158971858 -1.0622569325431312 1.432951124286946
C -2.1797803144086907 -1.9542145339771821 2.4068959358783313
C -1.4631822298794082 -0.567368767982819 -0.7125654543260816
C -0.27987475746493606 -1.1249917872543191 -0.8353522838366718
C 0.6188401553416006 -1.327635790440678 0.27329380117318997
C 1.7851435331275518 -1.8875543432551578 0.15927964392161767
C 2.347876544338858 -2.379813681476633 -1.075946340170739
C 3.6110026828741195 -1.7070369520333304 -1.4403520408362578
C 3.7030240537148225 -0.4119662839731002 -1.143065103642927
C 3.564404906552305 0.9033731252077636 -1.2687498114003968
H -4.020942583876853 4.0801165115544595 -1.8039498624463979
H -0.09687452415694345 3.7286358966275768 0.14249808874701606
H -0.1573877911507559 1.8052980095385662 1.4945778194579795
H -2.794863003930515 1.2446775944258544 1.9361128924201654
H -3.0126531457643657 1.7037978238978455 0.23875042977453853
H -1.4342989935531147 -1.8675789771423887 3.1392965203487764
H -2.9980434343243076 -2.6128058738339743 2.2763734858346205
H -2.0488031358505383 -0.4690410671449793 -1.6481796637136275
H 0.03599004788116769 -1.4431141356794868 -1.8387451151170313
H 0.3203248183155383 -0.9898116955395311 1.281175091524405
H 2.415029022903967 -2.0051599565829945 1.0620390622578544
H 2.650475500212614 -3.4738501871789342 -0.889693574036502
H 1.63852883498832 -2.3953386395693097 -1.909456581740313
H 4.466829749195888 -2.093465085686912 -1.9056465749799392
H 3.524422673431521 1.3820396166867575 -0.33164371814253574
H 3.511421156425797 1.2731130009556442 -2.256584527530661
