17

C 1.749648687792689 -1.7090582399881553 2.581751235273539
C 1.0288622609146105 -1.2946627581360914 2.1063504719607913
C -0.10365282399003188 -0.6336478464782617 1.3753783825668253
C -0.020525658210665626 0.18704555127132524 0.2458876255564503
C 0.6609783410838049 1.4374282464880586 -0.14360738901155148
C -0.8052309911961152 -0.2970751496925817 -0.8189869735096853
C -0.9558857010413944 0.3164549374947471 -2.1075252603204984
H 2.721909390631807 -2.243349204464953 3.209893750188314
H -0.6555763329908872 -0.038485886590260615 2.2767234150128517
H -0.7654808232066989 -1.5725938858654636 1.2141686335768653
H 0.7744565779305014 1.5620360067880108 -1.2460096863863324
H -0.09939811150784074 2.275362114936762 0.16833310516799282
H 1.60006197137144 1.6219496015104726 0.40613938794085214
H -1.3936655994767773 -1.181776609894013 -0.5854724970834363
H -2.103302093038523 -0.07395459315097727 -2.315021934951071
H -1.1895305379167436 1.4482362340824362 -1.9631273901484028
H -0.4436685546271308 0.1960914749290411 -3.0022984556043344
