11

C 1.746415694518342 -0.5775333935749585 -1.9398401701654389
C 1.2337900003600333 -0.3465551272813891 -0.8740186469103981
C 0.6243873214510519 -0.06835284886767752 0.4508822087655082
C -0.8276928716848354 -0.23064667772548378 0.3074990058981179
C -1.6906206510834285 0.7449457281472823 0.5414685474448473
H 2.1980930053140266 -0.7975822928939181 -2.869383932256186
H 0.907452543941507 0.9567877252965329 0.7431692853364249
H 1.0529489727779973 -0.7811807788463989 1.1867552378225077
H -1.1969856576822422 -1.2135051600699462 -0.009249309204580024
H -2.753168957841938 0.608991279209128 0.43138774757438203
H -1.2946194001745157 1.7046315465088384 0.8535710468167544
