37

C -3.0378726813804033 3.4938466550523173 2.5938686498933183
C -3.169594267025923 2.440378904549571 2.019980915140359
C -3.3237903131616493 1.1742918783315317 1.3227234745489407
C -4.436761914918346 0.44748522836227034 1.1770252984465512
C -4.152920081143574 -0.7614842337927947 0.40410271094901434
C -2.892865778484659 -0.7517962339538738 0.09661459318746095
C -2.272765255846504 0.45050573452677345 0.6410436572257956
C -0.9384467684022237 0.7196059231729043 0.4658195756228419
C -0.10019456272583988 -0.1451764610708458 -0.2449030168292803
C 1.247477267233724 -0.14427680922039293 -0.5793108850003892
C 2.3591214024203975 0.8480946557365937 -0.2789237956852809
C 2.5306222503677875 0.9872746809813145 1.2161429068524794
C 3.6188760000654763 1.9580837112011713 1.5707458628715967
C 4.955686103046417 1.517917673933573 1.0056897119670674
C 1.506156579307833 -1.2804925256568127 -1.3038113905480224
C 0.2613669188313169 -2.0284060179332566 -1.4290335994429384
C -0.18334371362287635 -3.2150134124267185 -2.0079898018526663
C -1.5229134566765192 -3.613834426560202 -1.9067980718587128
C -2.4633388320204515 -2.843673640267545 -1.2255664780049502
C -2.0283985635385604 -1.6705419303530216 -0.6520148423402132
C -0.7205322272962034 -1.3297932592649506 -0.7790682088926765
H -2.92693192480359 4.419448914043786 3.1119877658010062
H -5.3844732958315245 0.7534605937680533 1.590296300460441
H -4.837322576971582 -1.5523230263122854 0.11470973198999716
H -0.6170134183359752 1.6397997277275245 0.9205591006000834
H 3.305698108628347 0.543465129740094 -0.7193173035031354
H 2.0173405121318635 1.804103330888867 -0.7104933283204025
H 2.61172707534244 0.02303611155275617 1.7244247807348263
H 3.3469346418421955 2.9697791702055345 1.2445709219121142
H 3.7071137790002875 1.9783767175242373 2.6690256884099623
H 5.013050403805667 1.7538458210804138 -0.07876951077003294
H 5.7976170417084605 2.0096120721354316 1.5334859035353285
H 5.076759464425238 0.43019993954302427 1.1079713765794241
H 2.449867585471254 -1.5714349644218872 -1.7074033836785278
H 0.5523159842134604 -3.8006973973303433 -2.531142835903951
H -1.841496972830637 -4.542169410240215 -2.3670282946854844
H -3.506754512202902 -3.111498825113426 -1.1218609837338198
