17

C 4.259103518013946 0.3570463100385535 -0.8730412237223194
C 3.0840211642909514 0.13973818643795552 -1.026599037543818
C 1.6404525477996663 -0.1011684868470076 -1.215706596150014
C 0.9874163291395495 0.0829882049043653 0.07383285143764196
C -0.16218403681867974 -0.5039929904575533 0.2635056403483565
C -1.354857100573732 -1.0712838972158796 0.27255957907086376
C -2.454050803875796 -0.24725572559127854 -0.21502280623249473
C -2.9730905166092203 0.7542172925257226 0.7682565492437917
H 5.305882017654433 0.5696670996684101 -0.737056160037026
H 1.5003551128348904 -1.1351721895274578 -1.5869645273060622
H 1.2174159731055973 0.6417365784381108 -1.9485826080953568
H 1.3075860751323707 0.6412800715488987 0.9178726964632246
H -1.3445973547419525 -2.059845891538482 0.6368625415984098
H -3.2807673370938204 -0.9162917096210743 -0.5907758172778724
H -2.1493124176865295 0.33456390998142893 -1.133860277977559
H -2.4734644695416415 0.7519443636954121 1.7392597254066187
H -3.1099087010302786 1.7618288735523773 0.32361010218344366
