30

C 4.375855110312338 5.463714309738002 1.349016243334632
C 3.421238805054014 4.4432170271166855 1.4252370881496883
C 2.528250116487268 3.5128556634428247 1.480250652646921
C 1.8167070894317872 2.455329881737599 1.4316187010260515
C 2.342853456165373 1.215078079656492 0.8812173559241907
C 1.5233168787449471 0.1736653866140764 0.705420196058312
C 0.07433691454232931 0.2020901241691115 1.0431222569267107
C -0.5742583987602001 -0.993302060540943 0.7353802956787415
C 0.4072539448725932 -1.9274040974988769 0.12678270841849476
C -1.9141947442738967 -1.1444748161834255 0.9299835693066013
C -2.901752417672458 -0.8515504026703261 0.08010357903777136
C -3.8546205131969953 -1.0074770568070959 -0.8863682375504208
C -3.4125600171290964 -1.9298053767047045 -1.9400207707273465
C -3.8483276698694073 -3.1624220227055977 -2.480338340969403
C -2.2660245864194737 -1.498938251555535 -2.51694712206687
C -1.395505481078139 -0.88506408398246 -3.2077729528616605
H 5.122609583999899 6.283204080605702 1.2755426306308766
H 3.5302581242010644 2.6808718734974955 0.7239527501809717
H 0.7914625219539522 2.469512883969252 1.8605939849543183
H 3.383170617578828 0.9486535031436317 0.8478456033328673
H 1.9665274543230238 -0.7184057465632716 0.3754709334138582
H -0.403443206563406 0.9854171500278313 1.471595924436186
H 1.1631919670750093 -2.3378238720715863 0.7603330059925264
H -0.19130680381081724 -2.8089589766853673 -0.34383551742999613
H 0.8328948836755804 -1.4073357205755814 -0.7849071534891303
H -2.331080096840634 -1.5940676856268925 1.861839958432497
H -4.555039856751014 -3.7970388926638385 -1.971128791674084
H -3.6912294842404823 -3.3371533505984 -3.540499955212785
H -0.35653231235976995 -1.2623647272845144 -2.980779041124087
H -1.5840518789166642 -0.17002282181710685 -3.912411299661982
