19

C 0.056500740147708756 1.5340861370127603 -3.6008878379534894
C -0.19614566451024287 1.51221172803381 -2.5440030887733944
C -0.5405122397139482 1.5081060929236825 -1.1059081142296154
C -0.09472342245131893 0.5554278024550466 -0.32917799163570527
C -0.4270585737063362 0.5348910424895817 1.0680775849496955
C -1.7098792745772367 0.7317879422893955 1.309371759278792
C -2.9822205931401373 0.8391555613935456 1.5675290857971134
C 0.7747969168900974 -0.47631831958761606 -0.9215684671105522
C 1.6651054126220557 -1.0369761582817612 -0.13375477348806408
C 2.210562170296066 -1.9346500631662022 0.64600204106146
C 2.5711532218667994 -2.766341104169027 1.5794754229593788
H 0.3378477809105539 1.547459510502323 -4.702582990656352
H -1.1508667187044073 2.2954850769608823 -0.7210087545696795
H 0.17663073798678078 0.3822705760274748 1.9143290067756735
H -3.2466124773800056 1.8068802096958494 1.9482870808479387
H -3.5854317246086898 -0.004462065960169869 1.3749451510627377
H 0.693691906458463 -0.758642033856296 -1.9445059463594667
H 2.923366585870008 -2.418923752125444 2.531308082098271
H 2.5237952158045585 -3.8514481826373212 1.4195928403630869
