19

C -3.1557134410913736 -0.6464273019686808 0.501692546387221
C -2.8554944737328825 0.29097310566587153 -0.19176306667477785
C -2.477994869546905 1.4243542250621528 -1.0415742875708691
C -1.022373932694773 1.6190731263376068 -0.9559174169889132
C -0.29823870667608454 0.5557041761805371 -1.1759592033636448
C 0.35474327071134526 -0.5774858709133996 -1.2914694590399145
C 0.5522072824758182 -1.3337485827494797 -0.10285033999577023
C 1.790063057198709 -1.5634660979906971 0.3086824807232466
C 2.8803583936001576 -1.549774733793503 1.0565064719879782
C 3.2746550803067067 -0.27104647374854846 1.7018027538394622
H -3.4328049176523514 -1.4860645695927635 1.1115949464062336
H -3.0606123296288943 2.3322862491611906 -0.8031996709342804
H -2.7093744944894342 1.1575403164522318 -2.1010137803591036
H -0.469502367995901 2.491244600823847 -0.7408324987648383
H 0.6521953903330386 -0.7747811406123981 -2.297619594088394
H -0.28026099660921644 -1.7134240235655225 0.4609193476991455
H 2.4065897161500196 0.28643823042080097 2.0910648448272533
H 3.945115022366323 0.3326865127288341 1.0604667603963849
H 3.906443306336124 -0.574081754971156 2.5875558515400194
