25

C 4.441709893331843 2.56120391130489 -0.9392836490717796
C 3.237760109602276 1.9925522888388023 -0.8074503898764859
C 2.0142029893073428 1.4149239403080622 -0.6726601286333097
C 1.6632320701732528 0.2957346567104429 -0.08777682989181039
C 0.3162982826863695 -0.19646156793042568 0.030884318923426836
C -0.5203996771805337 0.9147789602927928 0.6980337610830868
C -1.4615088019303724 0.24673760235574066 1.67352518894223
C -1.8729225781363983 0.8269717868733725 2.7009027028323866
C -1.8933059691202418 -1.1507849336989022 1.4018276954562945
C -1.3819929977610788 -1.8398745178213902 0.4171516958646293
C -0.32335631226601347 -1.306002983619524 -0.5105898477666017
C -0.6714777375601493 -1.5997058144621594 -1.9094522146625905
C -1.4968474443047355 -1.2014592727798228 -2.629152700670511
H 5.309410882811382 2.984265145668925 -1.023462575452194
H 1.1766370130137425 2.009223219083082 -1.2537073740114422
H 2.529346553219437 -0.30902260582626034 0.2834573570046898
H 0.5677618985244071 -0.7611113068533598 1.2052900409931235
H 0.23065392642909263 1.434555773931604 1.4021828028756271
H -2.4318912655510743 0.8517654974457268 3.554686417965483
H -1.191378574689817 1.867521836677194 2.8362952322867985
H -2.648171834698806 -1.5704404798272262 2.0750791901117505
H -1.8129143935082546 -2.8573717205007427 0.3117192475136021
H 0.080816779198195 -2.403838344569667 -2.3966877794010264
H -2.3897489105571044 -0.5156421403797212 -2.796736418669078
H -1.4719139016723886 -1.6885189285442044 -3.7506134036116485
