26

C -3.1726414605017235 -4.251050568209002 -0.5707187276362657
C -3.2254109810706235 -3.0334228709289333 -0.41934136845130304
C -3.298550670632068 -1.6376560166893774 -0.22444250370830238
C -2.1942607016119915 -0.9662742173865652 -0.35811984770139277
C -1.0176184518539044 -0.37904095425031653 -0.40009877485929957
C -0.2760346554428878 -0.33053913107513727 0.850324821304676
C 0.666429166810882 0.8559439103563781 0.8276782142759268
C 1.642204973924553 0.7981105028639081 -0.2669204116065371
C 2.2880275992201264 -0.2861128988826735 -0.5663948237577032
C 3.1462586621317064 -1.2330355162272566 -0.6088002626137995
C 3.880647087920859 -2.290290713043576 -0.6740515918293384
C -0.11352407804135253 2.142499876712895 0.7898840462360963
C 0.8042698126913739 3.2892795486478783 0.7683544837954516
C 0.3960096932228029 4.528225057679947 0.44321832840392295
H -3.1429045739662467 -5.30276346386248 -0.6928138431183247
H -4.138737441541869 -1.052268752346324 0.020299224418944207
H -0.7707169027270018 -0.01865069680357696 -1.3588433821289467
H 0.3228797357541291 -1.2593090584148807 1.012722572970735
H -0.9757775707359454 -0.15889151038905153 1.6932311063568357
H 1.8323852417012867 1.7048483635477716 -0.8532337313672628
H 4.196162817450817 -2.806545105509076 0.22415854331658336
H 4.189435309910808 -2.6717632262746527 -1.6432472671601963
H -0.7706337487397348 2.1975598206655262 -0.09577060607535273
H -0.746028096823519 2.1620364432836143 1.7109326529997182
H 1.1176357209430332 5.336774020347923 0.4441362056106429
H -0.6395064879666309 4.662337156137679 0.19421950575643585
