23

C -2.9419928088848977 1.134091394523633 -2.296073273356083
C -2.5444597091860404 0.7301100197579309 -1.1630545118508302
C -2.1143734276356447 0.2651956024939286 0.13782942162385725
C -3.1405077466437543 -0.9016717597510289 0.5625858605856414
C -0.8115737965629348 -0.4328289584945778 0.10696949672183173
C 0.36649688792246 0.3312205974061724 -0.15491323074307142
C 1.5818682109595392 0.3262752343085595 -0.2019460117980418
C 2.412343982270131 -1.0515995447142397 0.1388779049837372
C 2.496119605542936 1.2413486745555633 -0.7868222837854768
C 3.7490010504397064 1.3643535605044566 -0.8395551176150388
H -3.2393789576890644 1.4584559018968855 -3.1920693855675406
H -2.0712365800853574 0.9740298100553509 0.9409386304169923
H -3.6859876493677937 -0.4624609857900709 1.4571455022846442
H -2.6351459514639233 -1.840232422776318 0.690720002551618
H -3.9184451450670377 -0.8987706735783075 -0.30271551434857263
H -0.6961187928439936 -1.3256604174130855 0.7779503556994167
H -0.9443094256859861 -1.073910640710343 -0.9346615561911914
H 2.896561226215536 -0.7128518013415324 1.0551653046909983
H 1.6528095608301212 -1.7997610230203533 0.32198861853926086
H 2.968888418518423 -1.2639929428036183 -0.7366769033708102
H 1.936208285485087 1.9585577904331335 -1.5302387729986973
H 4.060494183050159 0.298702597488734 -0.1346877602880534
H 4.622738582413656 1.6813999845588063 -1.017710799070763
