30

C -4.522405630568772 1.3512141039409897 -2.061845863231643
C -4.298779682606708 0.16806809062978503 -2.135007858042617
C -4.027314109598639 -1.2267771206729519 -2.2417038283363957
C -2.9995991568277027 -1.792538345493837 -1.659503509125094
C -2.07572461651022 -0.9917503531027559 -0.8630271650868201
C -1.0271269987357126 -1.5232576353667597 -0.25598692082509156
C -0.11632539567399607 -0.7112926999933349 0.5321610549288079
C 0.9279653036924341 -1.3133672037697068 1.1201492056367572
C 1.1636404073011348 -2.767535510786291 0.9811791277249577
C 1.8640868557638215 -0.5406697234999069 1.9172528790893764
C 1.5613158789265413 0.7234560118827648 2.1638997595026273
C 1.5690753135970523 2.047040519851353 2.072386399147703
C 1.9199267851323258 2.7227524695418355 0.8364772549108291
C 1.0593447956310158 3.445594161387595 0.14727729939029194
C 3.2752863661935643 2.594973300725347 0.32904616919315943
C 4.213189478490929 1.9027892277774283 0.9367294160639914
H -4.7282895334041495 2.401696804185508 -2.003501514097228
H -4.690920657471721 -1.8412943412361993 -2.8231527848111484
H -2.808916228317071 -2.849403752938397 -1.7498674920737562
H -2.243250559948197 0.06885712855892613 -0.75845152371221
H -0.8818821118388054 -2.5744673736258528 -0.37015614468071095
H -0.2509327603128012 0.35083214458870327 0.6566970164286721
H 2.2081336540347567 -2.976001302801373 1.2685140902128287
H 1.0473223528737754 -3.099717781856477 -0.08156989273698007
H 0.5190187369492995 -3.3789436786877163 1.6592875003169938
H 2.773812226607746 -0.9032975500761453 2.3170503918038334
H 0.04923524602329274 3.5184438195306558 0.5511048400332125
H 1.3143133775949667 3.94626285728637 -0.7663935874062684
H 5.193979155875165 1.856647918682022 0.4949195835797643
H 4.0118215070973005 1.3916858153361944 1.8580743239576931
