37

C 5.66287504617337 -3.4049751548156673 1.8992363736909978
C 4.511745283625909 -3.3044947060272003 1.5612574594563315
C 3.0856168290936985 -3.154035543513585 1.1386618054995088
C 2.6547977037645905 -1.8623734319205922 0.9352977642001105
C 2.3689875458878817 -0.7009070465806345 0.7976468784234217
C 1.0613656351017002 -0.26050744291495737 0.21602107554810301
C -0.10612759396376334 -0.7614010627979345 -0.28385065433356305
C -1.3932428364568452 -1.2178509022204294 -0.8369751920036677
C -1.7936517296325065 -0.6254499705781841 -1.9482617068693655
C -3.077070837688359 -0.9944021878383144 -2.608437171845179
C -0.9152761513847139 0.40156318495590254 -2.4979033570076217
C -0.919627540918249 0.6461978904921373 -3.799562192351289
C 0.014095831390345644 1.2163581235710013 -1.6504959206593162
C 0.091172415245865 0.6998914508501922 -0.2355987984245314
C -0.6313738929920328 1.4669194416383504 0.8278789600642523
C -1.4347643610623042 0.6859393162793436 1.827317352170358
C -0.5595692732209508 2.7831854984366813 0.8736712426052987
C -1.2719630865748095 3.5432185771323024 1.9216133741130583
H 6.6763399450022325 -3.497221243457222 2.185058935831121
H 2.4925374125168664 -3.658107380261446 1.9656234174710683
H 2.9394825385256302 -3.8281487743653733 0.2449608244656115
H 3.0410231615500525 0.14268966784063458 1.088738941763489
H -1.9478207211543392 -1.9969591394066815 -0.33443812360270064
H -2.9624136499741276 -1.1732462825705468 -3.676148050183442
H -3.808230831215608 -0.20082388506821403 -2.3558804178764534
H -3.4520224067699434 -1.915104812906506 -2.0753477231155464
H -1.5709712805375482 0.08747982553622217 -4.450259517587322
H -0.28816367807608323 1.3945815744851564 -4.245235226928021
H 1.000231628542595 1.2725583386295762 -2.1188750875588123
H -0.4648709503008697 2.2271335479606695 -1.6022810839608088
H -1.1359798705791047 -0.3790340427579392 1.8012635477767955
H -1.1135348662835103 1.0666100875790865 2.837062245668069
H -2.5071123286265626 0.8474769270919196 1.6524988585447686
H 0.022681088253066865 3.3067696607933303 0.143573988722997
H -1.7569922117853425 4.461384885892378 1.5389562690733274
H -2.0044695222061435 2.878252046478206 2.459778502963618
H -0.5077024432177146 3.806832964352314 2.7063991039430677
