20

C 3.54525337337924 2.060137717218626 1.0693110678637314
C 3.033507244192194 1.2837929459838757 0.29809304637767237
C 2.4170132022875377 0.3644698264251726 -0.651005291037289
C 1.3014829251477082 0.8086641630794457 -1.1470815417011495
C 0.07228217419033242 1.128618471785519 -1.4948619422387102
C -0.8912383375132985 1.2563381384574277 -0.4141332706898077
C -1.2009313503493158 -0.12970466273379028 0.10196598138632969
C -0.6951934756434651 -1.2641336397416039 -0.3509427348107056
C -1.1989254202132262 -2.4253229224134905 0.36216523757920355
C -2.0254379925979578 -1.9874782325254765 1.2656265602576604
C -2.1252789486941426 -0.4938600504660588 1.2121090154747458
H 3.97461908341569 2.7443018634499965 1.7351729489452703
H 2.749349078764386 -0.5601510948206069 -0.9610633730291497
H -0.02058293387813677 1.2543026838259825 -2.53532271787735
H -1.8593180721934146 1.708612713986443 -0.7191298641158369
H -0.4980484758143419 1.8787552550736564 0.42236327400417945
H 0.029341117472617757 -1.280797335958685 -1.1830969551228168
H -0.882258489427535 -3.45103655849244 0.115043129801999
H -2.5626591749862153 -2.642637788284925 1.9562167119210683
H -3.162975527505193 -0.25287149385187613 0.9577236681568352
