29

C 2.2328463130608673 -2.7209652207302892 2.1109912059536278
C 1.8776577065788747 -1.8240759969896405 1.2955075071825497
C 1.4849416174408532 -0.8314367919753719 0.42455365424805763
C 2.0657944969020887 0.3345619017996298 0.6317234229051634
C 2.547563351145566 1.50079155729031 1.002161350645379
C 1.5888315918480491 2.518004076547384 1.351409592582012
C 0.59336747561936 -0.8387673134851709 -0.6706938913305734
C 1.0675668412996064 -1.359735167445766 -1.9082793294508158
C 0.36876276250845924 -1.4306033242209664 -3.0343140116266687
C -0.9463093596341748 -0.962188832480492 -3.062446174777745
C -1.4313121009401477 -0.4511728990997373 -1.895090673914487
C -0.7018899492195307 -0.37524023333663775 -0.6854098046548284
C -1.3315032958342723 0.19403203872641703 0.4362060929739972
C -1.3006683404036865 -0.0847068136167323 1.8640230194249245
C -2.1620624022527988 1.1993931656184924 0.16439575664051476
C -2.9508855865019203 2.197438433413639 -0.18557723484847835
H 2.5467066800459914 -3.49474972281772 2.8405546324092223
H 3.623547241020261 1.5014538947366631 1.0056687836231983
H 1.7821522746263645 2.8680120064380534 2.4165423655724703
H 0.5458492611655918 2.1638362394893584 1.3456926354766776
H 2.131593746090306 -1.7147198735233844 -1.8479537721333554
H 0.7584552809215831 -1.8284239160086577 -3.9588705483695636
H -1.514084383960879 -1.0054884446467707 -3.9720970658903827
H -2.4660083197135476 -0.06118512148009757 -1.9083345700070595
H -0.5373929270260365 -0.8084648617073946 2.184674281209612
H -2.280324611933863 -0.551961718543043 2.217694985387519
H -1.1312497555841037 0.8457121517561201 2.4558009452392366
H -3.9472529104279164 1.8738700409063829 -0.42428419324067784
H -2.5146926967621765 3.1467807454969154 -0.19424896150302876
