32

C 6.163896668650106 0.8675526024331269 -1.0202223535842854
C 5.4112603100641445 0.13864998352747845 -0.6624872237375397
C 4.454032697153229 -0.8185243096841395 -0.1866964553196907
C 3.1966960208364568 -0.6392295216063649 -0.07313360380598292
C 2.3843459802872937 0.5546286031828374 -0.388548990519313
C 1.6987202724750325 0.8364713338035676 0.9048004995617223
C 1.8490156415496304 1.9972022240047749 1.3970186037655634
C 1.9142443208986273 3.277480585604847 1.7866135098031082
C 0.896658737568354 -0.13894665343183646 1.6088073081592003
C -0.3542845451890734 -0.42179074940511463 1.0597764016568851
C -1.4009991039577214 -0.6548198005548418 0.4494367271461393
C -2.786241248738725 -0.985899352805352 0.3391699945504707
C -3.3229512153581093 -1.0330964997405276 -0.8456191819645391
C -4.7005356551503805 -1.3462724167804772 -1.1292004787108643
C -5.4466905520351565 -1.6752451044847256 0.1727547729941953
C -5.69209798003625 -0.6801201048239062 1.0040198480165647
H 6.9794343391669 1.6749404374243002 -1.4188695087088663
H 4.844659616282671 -1.8277008030439388 0.11371538559852698
H 2.6131213806947926 -1.521756543565846 0.34471390957764847
H 2.9988286982143793 1.3606523512284139 -0.7442564082657145
H 1.6097420578496573 0.23385487445372113 -1.1189833408718404
H 2.7833966460969717 3.467241197590926 2.3951620203333297
H 1.1289585761580576 3.8874668796732332 1.454705040390375
H 1.0878420132285822 -0.24767240787154762 2.683505485247255
H 0.35702561797802723 -0.8349659060725234 -0.1512235671504735
H -1.1325461965472863 -0.3033565811734304 -0.7663506102240633
H -3.375331509875816 -1.2368343501134034 1.2348269387129822
H -2.6651598573261053 -0.8088840561998032 -1.7398667179545153
H -4.732996920135753 -2.248906912894423 -1.7794509640966922
H -5.270642759348189 -0.5106300768724154 -1.6109879467313841
H -6.173593266426695 -0.7066199596728793 1.9185999264790576
H -5.317808785061508 0.34513103823896885 0.6707116042596046
