21

C -3.354956476509932 -1.3504078396062877 -0.8348177421963707
C -2.5486261250836098 -0.4097671491730111 -0.47158762796867765
C -1.6766527918578915 0.6085468968955845 -0.10417075552597387
C -0.38516193580106706 0.10807663518330796 0.5071816153583972
C 0.39858570439872915 1.3766551999561276 0.8550223907961952
C 1.7008704663656362 1.3523541058276722 0.7427248023433072
C 2.5701602703362014 2.4998223731146503 1.043643511018407
C 0.4356022030923078 -0.622708119807943 -0.45268863110306146
C 0.33027148962310376 -1.9517797629379403 -0.44813293015931543
C -0.2902197098331582 -3.1422417606607875 -0.5057366380397749
H -3.9996887461118282 -2.12479166646843 -1.1422662522793143
H -2.1507994784532354 1.363581275529715 0.6217876426571535
H -1.4630327749506888 1.270228510648934 -1.00023786221687
H -0.5285160940321345 -0.5024135713853882 1.4029407194717367
H 2.1919400836914 0.4218254443153208 0.4089006062620193
H 2.1241540792385156 3.498047010053246 0.895089661674723
H 2.9627037386075723 2.4057414809271997 2.084438719281221
H 3.5062775885820687 2.5173484903718117 0.38479539483749914
H 1.1297366299662746 -0.29870657766319086 -1.1591858908797925
H -0.7070896757524514 -3.383652998522879 -1.4266082379488487
H -0.24555844533614618 -3.6357579765307144 0.44015497356001426
