19

C 2.9612526828215446 -2.138143831868688 -2.05270801068608
C 2.090760955159714 -2.104908793870004 -1.2094362233153806
C 1.0409961663928893 -2.042035742973882 -0.17551144491013457
C 0.7452082599024521 -0.5823961795294755 0.09544890252656077
C 0.25197934435861435 0.20308650303335457 -1.1174126291757176
C -0.6394275979364249 -0.05917343162988542 0.03726452823272448
C -0.939107520363515 1.0568872289746254 0.9657357148267535
C -1.8923517675328139 1.9381082678806678 0.7081286929465019
C -2.131380121716853 3.0268182626408824 1.6876759169273485
H 3.734348602777749 -2.181370868180091 -2.784642139483645
H 1.3902805422659628 -2.5441030290123776 0.7400324926065353
H 0.10583976983809337 -2.5223589176791306 -0.5432387850966378
H 1.5415571000029848 -0.04589783813860883 0.6608425501445234
H 0.12311764171373117 -0.3669290147461843 -2.0712429350718202
H 0.5961102836078188 1.2270352550141737 -1.2647329452769245
H -1.4231310600718066 -0.8447636581118471 -0.1324612200240297
H -2.495755768795287 1.8936622091138944 -0.17941075091535164
H -3.150339082888754 3.395744418754464 1.5762260628583338
H -1.909958429541834 2.690739160271702 2.723600042523025
