18

C 2.7928363244238317 -2.284440771215996 -0.2153313193801585
C 1.871390266035831 -1.8629712828823213 0.16993680987193754
C 0.5983526119111258 -1.2551286744486976 0.6929406224172177
C -0.40238342335145155 -1.306032302166489 0.1388960177927173
C -1.2625723288335853 -0.8737001742525384 -0.8947603578530083
C -1.0783413356197777 0.27821970524004414 -1.5776048968634735
C -2.0414003204102578 1.0646968156353551 -2.03210370211152
C -3.4149502439568793 1.1586788613291414 -2.575937893151966
C 0.8829460439730051 -0.2895374082755033 1.8471788668944764
C 1.3319098292103513 0.924751161620131 1.4909667167729503
C 1.632160307729377 2.0815786123047713 0.867056169010366
H 4.120029528929594 -2.9077907669659724 -0.7951689948207996
H -1.9664212891944948 -1.7339542390239195 -0.967227473270691
H -3.8575362858407214 1.7576845013028362 -1.7290523420047632
H -3.5082011423965263 0.6906773037479348 -3.347586387654662
H 0.7743742715721131 -0.3135648278611548 2.8972946529472168
H 2.6941865616482055 2.2227405605286394 0.7078675160156435
H 0.8336206190793777 2.6480929212399693 0.5416287535267578
