24

C 5.340823240536474 -0.48669849413567146 -0.9839528961931255
C 4.237441027842185 0.2829997775087287 -0.7400653626629953
C 2.9762508887101307 1.1355918094016717 -0.47976936682676835
C 2.0314499480374844 0.7842400877522 -1.3036902188807726
C 0.6559375248727981 1.1134387350361865 -1.6624042719033372
C -0.29871861615761697 0.7777367307666699 -0.5475858658398985
C -0.7453361961658873 1.9648791718919254 0.2074052184432219
C -0.5981383725354696 -0.4239875876957114 -0.3816301907258439
C -1.3637930582731643 -1.3347988410560034 0.4045715581083724
C -2.7285438266862796 -0.9521891969536768 0.8627275465968501
C -3.3728195275088897 -2.110267929066111 1.5596056990197082
H 6.143989547569489 -1.02612909963392 -1.15832559840708
H 3.0943943789490977 1.8206835894911917 0.27134467801683865
H 2.360528057163153 -0.1545182090080443 -1.9182021658519526
H 0.3379812382253675 0.728813838308438 -2.6397142073125828
H -1.853050971070514 1.925544248554309 0.4020693998730246
H -0.26241607585651294 2.0577986670961814 1.1970800333836733
H -0.6002273337929053 2.9279345697609407 -0.31964649705206616
H -1.3557091843267595 -2.3561463784449463 -0.022861512883583797
H -0.8020850432482581 -1.5308856809719087 1.4315271852356295
H -3.331856358210651 -0.5619455741676924 0.07020304534707562
H -2.6095204590991745 -0.12412840963606918 1.6442045557825644
H -2.8252461675512075 -2.506055877388335 2.4120588755868324
H -4.4313346613231275 -1.9519099474900001 1.7841844180317825
