30

C 4.075362240123834 -1.5871059709149862 -0.7336893194129545
C 3.8177662490123208 -1.1577791781151197 -1.7921224647210898
C 3.533550446941415 -0.6511502552140804 -3.0584737390287153
C 2.1653741998489173 -0.3413857203033358 -3.2706385575432284
C 1.3077636169389208 -0.6305461656234583 -2.118851401399087
C 1.3886480563101549 0.37920321435861926 -1.015407817202154
C 0.2984404431618831 0.7426887696628937 -0.4404228136478117
C 0.05854471742307674 1.704085954183747 0.6595994564319789
C -1.365317792956546 2.283349236822302 0.5493352696668639
C 0.267860417227435 1.1055617664212474 1.9884535585409058
C -0.8338432707033175 0.954264945289259 2.7575201263025417
C -1.9137426997885556 0.208747828175087 3.130070891035442
C -2.7378387993477684 -0.3691670416698072 2.1032642279864704
C -3.9703587680392194 0.06898893191218641 1.5408267205593305
C -2.2020717913969365 -1.441854633758466 1.562987254722422
C -1.6056003595593487 -2.375370127957609 0.9085516399419723
H 4.324371956527046 -1.981273291819267 0.2811195194986784
H 4.220020535696016 -0.4074595603960204 -3.7844591600551194
H 1.9719389072602533 0.0744088253948624 -4.208413589197171
H 1.0837452704594637 -1.6474136977316813 -1.8444154149552139
H 2.3554430324006557 0.7905419626622072 -0.7706017468427998
H -0.6509442407242342 0.2994391914099851 -0.8237817572981055
H -1.3383333626786935 3.1859195355059367 -0.09586063249433865
H -1.9215709201836058 1.506190188801872 -0.025548920003471885
H -1.8156616758174502 2.420815440297866 1.5246197293191235
H 1.1658100894118124 0.7958460328683512 2.4086041265697586
H -4.015747784013916 1.163732205990212 1.4438668555534195
H -4.876841116943206 -0.4214218642314336 1.8130272280214832
H -2.2246109947890282 -3.1635693210575506 0.5741785756467613
H -0.5621566017483918 -2.31128722454255 0.736662154013706
