12

C 0.7277792264711163 2.8483990368064314 -2.2515835971154634
C 0.5060236335598145 1.6870712784400113 -1.7316958579278199
C 0.2589719973135439 0.44125196358483504 -1.180426105199305
C 0.21734884977613414 0.3315241268919622 0.22318407005735233
C -0.08571232977987059 -1.0946358416431734 0.6525538687186692
C 0.18640688729170649 -1.6346697674691877 1.9727527725404046
C -1.0765471350701867 -1.0889655103259677 1.8497675991082179
H 0.8731080183971841 3.688282925596074 -2.6260434677186115
H 0.1356129875188323 -0.4792245839881123 -1.6970251587501597
H -0.4607210159085731 -1.766387315432737 -0.12321741404433774
H 0.8025664243095256 -2.14232006455858 2.7530954956686626
H -2.0848375438876463 -0.7903262474198122 2.1586377944255246
