12

C 0.11028017199552008 0.9692293225583719 2.3938107584904493
C -0.5958902237390951 0.6024647738472985 1.583599790949639
C -1.538493246938084 0.10294705967674134 0.49038592871317505
C -0.915580274065803 -0.29478668051779267 -0.5760039636121616
C 0.5358953302195655 -0.268890631402075 -0.660871414592157
C 1.309539087595562 -0.5469519852769573 -1.6901962808785675
H 0.8202519539366933 1.341145955902713 3.182273990592449
H -2.5607797702094395 0.1524242257109421 0.7225214246401276
H -1.43089255687284 -0.651363058024747 -1.4387476174534446
H 1.0794710655346096 -0.062084800168245025 0.28092078966390865
H 0.7981631703609442 -0.8414599943267329 -2.6183059592371984
H 2.388035295555441 -0.5026741996571945 -1.6693874447013717
