13

C 1.9880268436690385 -0.9402141535117454 -1.3719234382694805
C 0.4898164569446096 -0.644005925501414 -0.8793499671567032
C -0.7990259883902578 -0.3672628750652721 -0.4531700891737023
C -0.1275339176113324 -0.36950416657199847 1.305473930453373
C -0.8907433188081303 1.094221750054197 -0.4285594510003887
H 3.1635849235112103 -1.1639527325507713 -1.777731353864891
H -1.1356337127952618 -1.2467026454167174 -0.08988421237679149
H -0.8934149672940154 -1.0347652723077356 1.6693490471849206
H 0.8395179167205372 -0.7378175087265834 1.0626375359750337
H -0.2795522872176316 0.6924925355722917 1.3850553403127865
H -0.6059778707950653 1.5783044022872537 -1.411596386584591
H -0.026499920500623 1.6051449178334924 0.2831582584801826
H -1.7225641578192479 1.5340616742884663 0.05635008857619901
