19

C -2.1154098593915753 -2.287800028829127 0.23351854549004475
C -1.996220051537373 -1.1690335600288644 -0.15328091192698975
C -1.8280208425905538 0.2051566616947333 -0.6402032888079742
C -2.8961659725143085 1.0676495486276492 -0.028227735485508672
C -0.4617993653443378 0.728988650196971 -0.25533684883572616
C 0.5984573595397913 -0.1045093258372552 -0.836802073896779
C 1.4495514896381927 -0.6887053240195598 -0.05006339079450443
C 2.4665999237954 -1.0033689740945086 0.7436909350453923
C 3.506617091244757 0.06086433462176497 0.9752837191208988
H -2.204556737762582 -3.2974771103076197 0.5859079667816697
H -1.9027273607118989 0.24567152938414438 -1.7442983406930168
H -3.1702876468015373 0.778070445987442 0.9876552483926838
H -2.648332867690289 2.1442870543562194 -0.06171476058939748
H -0.38224302799400645 0.8732957863987486 0.8204105642723717
H -0.3734302458965865 1.743823683859333 -0.7387144708025419
H 0.681590662716057 -0.23290763108433574 -1.8887932183134235
H 4.258893796807505 0.06812717846520494 0.16950634552503027
H 3.0592968940823195 1.0658335320858776 1.0287772099131658
H 3.95818676041397 -0.19796645147642164 1.9775956053928228
