15

C 3.937364891678047 0.26865409020191133 0.45697861832800135
C 2.746576199577981 0.39183680056053494 0.44113109953643775
C 1.2953273819006756 0.5227570950038944 0.4053120835530428
C 0.6113290660231783 -0.7891249809304782 0.19603687691652716
C -0.8555807795612445 -0.5513580163868781 0.17467153821372317
C -1.4533147961933892 -0.351668385198851 -0.9672496570510353
C -2.8779509478702145 -0.10234393929012854 -1.1907137902616225
H 4.987166097754071 0.1778549727803586 0.46694486053047296
H 0.9644150484218781 0.9333828672525033 1.3854489031274355
H 0.9398763602913098 1.2395176775949122 -0.36084595651730106
H 0.9102731043052698 -1.2210653046562014 -0.7770372681566605
H -1.3833213468215049 -0.5520705548667192 1.117020404099482
H -3.521803446870663 -0.5219491897805177 -0.37844929193656746
H -3.2693173211854645 -0.4598296271127083 -2.140106412842659
H -3.0310395119471467 1.0154064946386985 -1.1273175941532099
