13

C 3.34234634148482 1.2281303757485658 -0.13057520281236237
C 2.252952228372733 0.7151694691766916 -0.20044322312460366
C 0.9438930762321949 0.08389897043070652 -0.2632049764717071
C 0.30591542097339786 -0.2432608836758777 0.8494070238523593
C -1.0153075111381527 -0.8799654812857691 0.7605873520250392
C -1.9045559981253175 -0.05545911575920004 -0.14799563035256194
H 4.305741439912026 1.664538661283906 -0.06760868043810218
H 0.5534854294468835 -0.08779782294316081 -1.2527820895869999
H -0.8795491664987027 -1.8824857227756913 0.3041929086041792
H -1.5267412215555394 -0.928190340105915 1.7410958803783154
H -1.48472786969768 -0.05303277514623081 -1.1752220460307536
H -2.9162718021020306 -0.5214649264024437 -0.24200230895092825
H -1.9771803609596872 0.9599195681467869 0.282445574266025
