16

C 3.1945042988619345 1.3579064254606945 -0.1721302701495537
C 2.6673458594789574 0.39946753959216585 -0.6873344354934965
C 2.0496873075331656 -0.7411386456753603 -1.272468449898099
C 0.7660346411121665 -0.7065202317463553 -1.4814988204938946
C -0.5558081507466878 -0.7779269958315373 -1.4076670198741883
C -1.1352997492254602 -1.258992429826928 -0.13856133480180466
C -1.1284367406424103 -0.21004345453954973 0.9457969086905945
C -1.9042925513589524 0.9536629785955713 0.5288122983616561
C -2.5590414491948605 1.906207511094379 0.19768220322542207
H 3.6498969786446165 2.2163315823043948 0.27281225857194963
H 2.641540272389108 -1.5937064200072297 -1.5218915017260297
H -2.172454289793376 -1.6033001288960103 -0.3161763064656274
H -0.5604660750980519 -2.154700945158364 0.17455846276434014
H -0.1323819974166989 0.12545535019795934 1.2237112685275098
H -1.6732417505381956 -0.6513205765457214 1.8161749569416052
H -3.1475866039633433 2.7386184409369565 -0.09270557218330266
