15

C -0.5060167900770793 -1.7333431765958083 -1.0961338481666134
C -0.06989651103672848 -0.6211060355046388 -0.6622733467981923
C 0.4175592328416422 0.6115203517141583 -0.15513552269587103
C 1.876076653986892 0.6466346827339609 -0.340054339998757
C -0.8336793699002558 1.1031753289009545 0.32829898833637794
C -1.443178839539146 0.061908384774509 1.2936925453296417
H -1.1728730033619714 -3.4063541588131554 -1.7825092929666604
H 0.7173006063889001 -0.11047824907207732 1.0392318671239187
H 2.6217962741654 0.9612707520611419 0.3893035001682905
H 2.4070950267792246 -0.5296208009421796 -0.40762077786269274
H 2.1642429363456968 1.1946757910472499 -1.2882387114950866
H -1.5488783008275782 0.6861125498857066 -0.75386478302479
H -1.3293357185857644 1.9746966398925696 0.4641691398981467
H -0.9389613450258026 -0.3459301639761416 2.1159657722217564
H -2.3612508521457234 -0.49316189794085935 0.8551688109019951
