35

C 3.5998559763502898 -2.659477113273934 -0.07858156802859312
C 2.7101348751201075 -2.252313428609048 0.6254895539765578
C 1.6102345624572763 -1.7396037283927048 1.4814981747454807
C 0.4912925824766793 -1.2512905476819522 0.6664371149681106
C 0.20872313142607737 0.01372845392671258 0.8291143233637653
C 0.009855690922499372 1.3243703976529746 0.901792131178516
C 0.7572940368079336 2.122287902059687 -0.01915420981960873
C 0.060558837054568805 3.1025911465307328 -0.8491599954437593
C 2.11227448825878 1.786577598216981 -0.3192208299452498
C 3.0242364649841234 1.9911778203229265 0.6148982307826348
C 3.837509877657049 2.2327720740174954 1.621786669720708
C -0.312897014007128 -1.942369447017414 -0.2635586824384424
C 0.05938899984507116 -2.82439445304261 -1.3178458187727398
C -0.7359834535140395 -3.4358797476227343 -2.150490037313691
C -1.6097010095195363 -1.7524330624241427 -0.1473913007221538
C -2.8958553116753665 -1.448421002273343 -0.10466741782055358
C -3.2938566979216852 -0.3427212930292592 -0.8973111358048526
C -3.9784466454990417 0.6073160485158466 -0.30235518895945973
C -4.653105674953 1.5020955230010409 0.3767652411722754
H 4.378503445519554 -3.0234410881162423 -0.7125250531067459
H 1.317691535802903 -2.620371725045748 2.109676582731493
H 2.041765880711945 -0.9724042053659806 2.1152231350032187
H -0.6928327081668524 1.5546171037843504 1.656762346917554
H -0.8444329946893621 2.6327504759139493 -1.3244856036700243
H 0.7412252381005242 3.494775856539317 -1.6316586068474004
H -0.3366125548940842 3.9978343333767454 -0.2983929067281582
H 2.5440404712624765 1.3755044688005427 -1.2167462966685312
H 3.9592938517665557 1.4245805069393047 2.291673553552783
H 4.255089043522291 3.2059110707210543 1.618408498774073
H -0.2532755251831634 -4.080899320889748 -2.9014824562389334
H -1.8045852850800945 -3.3782056621606684 -2.1821869035767234
H -3.4235587493043353 -2.09933408138137 0.53054961927426
H -3.1206763999248692 -0.15203576380573977 -1.9350835831225865
H -5.701477205159013 1.3516216138099804 0.3857514743132587
H -4.061671760378553 2.2550832761040014 0.8264709445907509
