14

C 1.4924188338640625 1.3012494574267954 -1.4701370379143124
C 0.9711329249678085 0.572222252446676 -0.6390914674293768
C 0.3295094752087903 -0.3048600690474255 0.34118920753994314
C 0.7897796577567001 -1.7561971435101764 0.14361518026230227
C -1.1494966968460067 -0.22620040215974108 0.13142314949765782
C -1.7941655450864742 0.9620415057381483 0.77245061005499
H 1.957433379115282 1.9387900332989758 -2.178770867013101
H 0.6603522390500538 -0.00347291839576101 1.3433445426945436
H 0.6972052271309425 -1.9972007921809243 -0.9489740423162937
H 0.09767887738204092 -2.450020198541245 0.6555475552009956
H 1.8397111519473133 -1.8954964139152446 0.4331983683221027
H -2.840424014476213 0.7384015839724679 1.0952388326910336
H -1.7986828265021424 1.7888941997965606 0.03169163070079087
H -1.252452683502166 1.3318489050701185 1.6722587276380525
