5

O -1.5081752925471978 0.13889424275243953 -0.5016430672854104
S 0.05893662361163941 0.7569287493041698 -0.4200105197833485
O 0.9378993664963234 0.2798039314488378 0.9410849172298043
O 2.0257039966719135 -0.4032522928004031 0.6546697237936885
H -1.5143646942326834 -0.7723746307050469 -0.1241556328569845
