7

O 1.2133156375328333 -0.31636080150754636 0.48820235220096464
O 1.0512726794658018 0.3162418347557604 -0.6571303847506855
S -0.5624821115752042 0.8384685669782197 -0.6499980168776159
O -0.7211128111271548 1.8212237880181799 0.7219537791520155
O -1.6123132783179093 -0.4723366274164717 -0.4951343103272693
H 1.8757417699185954 -1.027620167433265 0.4600173565977292
H -1.2444218858969618 -1.15961659339488 0.1320892240048618
