7

O -1.8421419039635194 -0.6333967352188111 -0.03158619746448659
O -1.0863778463888645 -0.36585128709884385 1.0325294566476901
O -0.16187446410420195 0.5068122502052137 0.6411733611361466
S 0.5962712590110801 -0.2485977450563586 -0.7187670836661136
O 2.140750450237869 0.4313691284382276 -0.9916878566023379
O 2.9282840739041345 0.2902906584487026 0.065771471716995
H -2.5749115686964963 0.046338771020531036 0.0025668482321069335
