6

O 1.0367587507045266 0.3273041544100966 0.3422718257183775
O 0.5713095986782495 -0.605330157429391 -0.4776330373256372
O -0.44381091213459184 -1.2365758833799685 0.04775762275512721
S -1.660333922813866 -0.2007223411468257 0.6301362724899586
H 1.9332235958892552 0.5704744104783348 -0.028873589493524456
H -1.4371471103235764 1.144849817067757 0.3339488340419823
