8

O 1.7411993928899232 -1.03900998723693 -0.40571913847177116
S 0.19032946871500292 -0.4445571833025187 -0.7273533077045666
O 0.23888447516650346 1.2184156941688722 -0.786047632848253
O -0.8022060840316547 -0.9880128717742874 0.5125727048146916
O -1.6061260805858777 0.0013650718919791405 0.8249989472189647
H 2.002168280705795 -0.6279182855052156 0.4637140096723498
H 0.3793823503750443 1.6484220245379027 0.09224430999501435
H -2.1436318032347383 0.23129553722019217 0.025590107323568995
