5

O 0.9419359991441355 -0.36106738595483134 -0.13592731240133332
O 0.10671186268928848 -0.5419679706240763 0.8425817914871598
O -1.144731140067766 -0.3027415932024465 0.513316742033764
H 1.3718020275548866 0.5172751437286056 -0.16296509120902175
H -1.2757187493205446 0.6885018060527486 0.5087404657680464
