5

O 1.1293528770153463 -0.10861061501032132 0.42814378686289195
S -0.48833115572948427 0.13838843025165512 0.31784573618625506
O -1.3822879214127277 -1.1640688660780156 -0.1411186227415372
H 1.6160006606085617 -0.1860487058851569 -0.41608305114972455
H -0.8747344604816967 1.320339756721836 -0.1887878491578873
