6

O -1.821749191918003 -0.1819172029185507 0.6792828756717559
O -0.5503865442961732 0.10891583818759294 0.9160572241026768
S 0.3474310199438101 -0.7065205246935824 -0.31013346510314105
O 2.0201605304383325 -0.5139322681591474 -0.11859990638556443
O 2.408184507773209 0.7279068817959186 -0.028510643353025528
H -2.403640321941182 0.5655472757877705 0.9172632237267329
