5

O 1.1616228693381423 -0.23199889809111038 -0.4035761517332302
S -0.47661702984230925 0.004719728344091343 -0.41488947563933803
O -0.9553734659452516 1.4909773811941525 0.1380649315846391
O -1.329883847903947 -1.2658340649655908 0.22892846634299693
H 1.600251474353367 0.0021358535184572897 0.4514722294449328
