7

O 1.7265247918494684 0.5573535098004904 0.7027036537327921
O 0.7319875537504767 0.6240956989726483 -0.139089613084686
S -0.42351233529130333 -0.5387259490382998 0.18527685350695386
O -1.5581068709242953 -0.5964192775017436 -1.0371482007881898
O -2.0026555288312164 0.5869573645840538 -1.3836122557768593
H 2.5491531067868554 0.2542902639121719 0.2676678361046374
H -1.0233907173400476 -0.3622763639999357 1.4042017263053428
