7

O 2.015711630975816 -0.43857556922085245 0.6498645594601904
O 0.7792065806624501 -0.49770582021433185 0.17027125801473453
O 0.5275192688417288 0.7168083348098038 -0.30671381606367076
S -1.032467839925889 0.8495347238502472 -0.9541356917181032
O -2.1705632821079086 -0.14831707065623545 -0.1822584070083298
H 2.556490255017904 0.15159713335318103 0.0861159090206284
H -2.6758966134641002 0.296661056094754 0.5368561882945543
