5

O 0.8612245495282187 -0.16856292141244478 0.39305239767089795
O 0.06104183303888771 0.841439963681087 0.21640780412847857
O -1.0465248462764172 0.41930009008457925 -0.35094829000860234
O -1.3198410171976096 -0.7628595019981953 0.12502975471462482
H 1.4440994809069199 -0.32931763035502654 -0.38354166650539845
