5

O 1.3516801840355477 -0.30612399800145756 0.23193798288138964
S -0.2768579803580989 -0.29319082696871757 0.5055937387009695
O -1.4530912982969737 -0.5739172887476499 -0.4061627956647235
O -1.30245045121235 0.8234085883948751 0.0805398069487687
H 1.6807195458318738 0.3498235253229497 -0.4119087328664052
