6

O -1.566287965964392 -0.3757944680454109 0.04525712403464649
O -0.544164235073435 -0.7252948350358492 -0.6752612044208957
S 0.8621600577414179 0.0353653115588482 -0.34074813931931447
O 1.9108775474236925 -0.783591487091476 0.6341525857220222
H -1.4649089328685558 0.4891339534678186 0.48462902091872917
H 0.802323528741282 1.3601815251460683 -0.14802938693518664
