7

O 2.490847194871204 -0.0907894534851023 0.14678001419284104
S 1.1430164158561715 0.20429548131034242 -0.8461031001359394
O -0.276628493140426 0.3110763129298488 0.10814356864283131
O -1.286768926235313 -0.029912314080406684 -0.6736631878974404
O -2.4163457123008523 -0.1104735512123252 -0.03476838081287199
O -2.414954017218462 -0.9857123966366602 0.9358991000632271
H 2.7608335381676663 0.7015159211743022 0.6772976513163697
