6

O 2.4409557727081896 0.690272584389617 -0.2805020945783591
S 1.6859331643661948 -0.83881118828613 -0.31418973698822167
O 0.12498380989256959 -0.7169408236030764 0.3939094725341719
O -0.4717798103474115 0.31078776556497273 -0.2086312818353304
O -1.397607653311741 0.7209309139180685 0.6465176291141851
O -2.38248528330779 -0.1662392519834515 0.6085232598969831
