5

O -1.5555858644572371 0.9235721006058266 -0.04596998392165193
O -1.3089809987960142 -0.3612358625401536 -0.24730693871837356
O -0.3058901229371358 -0.6726764578463524 0.5369603910096243
S 1.1954294387461333 -0.6970793376181914 -0.2877298745214447
O 1.9750275474442531 0.8074195573988706 0.04404640615184474
