12
OOC/C=C/O
O 2.7073 -1.0089 0.4537
O 1.4465 -0.8897 0.7563
C 0.8329 0.1137 -0.0320
C -0.6177 0.2066 0.3597
C -1.5273 -0.0232 -0.5725
O -2.8765 0.0585 -0.2270
H 3.0475 -0.2405 -0.0853
H 1.3455 1.0763 0.1610
H 0.9327 -0.2398 -1.0745
H -0.8995 0.4540 1.3742
H -1.1894 -0.2667 -1.5705
H -3.2020 0.7597 0.4570
